/*---------------------------------------------------------------------------*\
| =========                 |                                                 |
| \\      /  F ield         | OpenFOAM: The Open Source CFD Toolbox           |
|  \\    /   O peration     | Version:  2206                                  |
|   \\  /    A nd           | Website:  www.openfoam.com                      |
|    \\/     M anipulation  |                                                 |
\*---------------------------------------------------------------------------*/
Build  : _76d719d1-20220624 OPENFOAM=2206 version=2206
Arch   : "LSB;label=32;scalar=64"
Exec   : simpleFoam
Date   : Sep 23 2022
Time   : 22:45:10
Host   : fedoragq
PID    : 7403
I/O    : uncollated
Case   : /home/giuseppegq/volume/OpenFoam/planeChannelRAS/myJLKE
nProcs : 1
trapFpe: Floating point exception trapping enabled (FOAM_SIGFPE).
fileModificationChecking : Monitoring run-time modified files using timeStampMaster (fileModificationSkew 5, maxFileModificationPolls 20)
allowSystemOperations : Allowing user-supplied system call operations

// * * * * * * * * * * * * * * * * * * * * * * * * * * * * * * * * * * * * * //
Create time

Create mesh for time = 0


SIMPLE: convergence criteria
    field p	 tolerance 0.001
    field U	 tolerance 0.001
    field "(k|epsilon|omega|f|v2)"	 tolerance 0.001

Reading field p

Reading field U

Reading/calculating face flux field phi

Selecting incompressible transport model Newtonian
Selecting turbulence model type RAS
Selecting RAS turbulence model newKE
RAS
{
    RASModel        newKE;
    turbulence      on;
    printCoeffs     on;
    Cmu             0.09;
    C1              1.55;
    C2              2;
    C3              0;
    sigmak          1;
    sigmaEps        1.3;
}

No MRF models present

Creating finite volume options from "constant/fvOptions"

Selecting finite volume options type meanVelocityForce
    Source: momentumSource
    - selecting all cells
    - selected 1800 cell(s) with volume 0.2
    Initial pressure gradient = 0


Starting time loop

Time = 1

smoothSolver:  Solving for Ux, Initial residual = 0, Final residual = 0, No Iterations 0
smoothSolver:  Solving for Uy, Initial residual = 0, Final residual = 0, No Iterations 0
Pressure gradient source: uncorrected Ubar = 0, pressure gradient = 8.46253
GAMG:  Solving for p, Initial residual = 0.999994, Final residual = 0.00469949, No Iterations 3
time step continuity errors : sum local = 8.62358e-16, global = 3.06024e-17, cumulative = 3.06024e-17
Pressure gradient source: uncorrected Ubar = 0.862192, pressure gradient = 1.1662
smoothSolver:  Solving for epsilon, Initial residual = 1, Final residual = 0.0947769, No Iterations 1
bounding epsilon, min: -3.77359 max: 14.3478 average: 7.2399
smoothSolver:  Solving for k, Initial residual = 1, Final residual = 0.0688211, No Iterations 4
ExecutionTime = 0.06 s  ClockTime = 0 s

Time = 2

smoothSolver:  Solving for Ux, Initial residual = 0.106194, Final residual = 0.0103832, No Iterations 4
smoothSolver:  Solving for Uy, Initial residual = 1, Final residual = 0.0517718, No Iterations 2
Pressure gradient source: uncorrected Ubar = 1.13694, pressure gradient = -7.07201
GAMG:  Solving for p, Initial residual = 1, Final residual = 0.00884072, No Iterations 3
time step continuity errors : sum local = 0.00156721, global = 5.90382e-18, cumulative = 3.65062e-17
Pressure gradient source: uncorrected Ubar = 1.02242, pressure gradient = -0.182418
smoothSolver:  Solving for epsilon, Initial residual = 0.311107, Final residual = 0.0244757, No Iterations 3
smoothSolver:  Solving for k, Initial residual = 0.508658, Final residual = 0.0376106, No Iterations 4
ExecutionTime = 0.07 s  ClockTime = 0 s

Time = 3

smoothSolver:  Solving for Ux, Initial residual = 0.0380875, Final residual = 0.00358188, No Iterations 3
smoothSolver:  Solving for Uy, Initial residual = 0.556613, Final residual = 0.03403, No Iterations 2
Pressure gradient source: uncorrected Ubar = 0.975582, pressure gradient = 1.83116
GAMG:  Solving for p, Initial residual = 0.130121, Final residual = 0.000871913, No Iterations 5
time step continuity errors : sum local = 0.000267774, global = -4.92931e-17, cumulative = -1.27869e-17
Pressure gradient source: uncorrected Ubar = 0.996102, pressure gradient = 0.139047
smoothSolver:  Solving for epsilon, Initial residual = 0.142305, Final residual = 0.00931399, No Iterations 5
smoothSolver:  Solving for k, Initial residual = 0.281002, Final residual = 0.0216191, No Iterations 5
ExecutionTime = 0.07 s  ClockTime = 0 s

Time = 4

smoothSolver:  Solving for Ux, Initial residual = 0.0224913, Final residual = 0.00218571, No Iterations 4
smoothSolver:  Solving for Uy, Initial residual = 0.419471, Final residual = 0.039343, No Iterations 2
Pressure gradient source: uncorrected Ubar = 1.0025, pressure gradient = -0.0850263
GAMG:  Solving for p, Initial residual = 0.107539, Final residual = 0.000852881, No Iterations 4
time step continuity errors : sum local = 0.000233732, global = -5.16521e-17, cumulative = -6.4439e-17
Pressure gradient source: uncorrected Ubar = 1.00034, pressure gradient = 0.108852
smoothSolver:  Solving for epsilon, Initial residual = 0.114763, Final residual = 0.0090374, No Iterations 5
smoothSolver:  Solving for k, Initial residual = 0.220346, Final residual = 0.018737, No Iterations 5
ExecutionTime = 0.07 s  ClockTime = 0 s

Time = 5

smoothSolver:  Solving for Ux, Initial residual = 0.0162169, Final residual = 0.0012041, No Iterations 5
smoothSolver:  Solving for Uy, Initial residual = 0.395193, Final residual = 0.0239046, No Iterations 3
Pressure gradient source: uncorrected Ubar = 1.00084, pressure gradient = 0.0294813
GAMG:  Solving for p, Initial residual = 0.115501, Final residual = 0.000724051, No Iterations 5
time step continuity errors : sum local = 0.000173369, global = -1.79428e-17, cumulative = -8.23818e-17
Pressure gradient source: uncorrected Ubar = 1.00017, pressure gradient = 0.0930817
smoothSolver:  Solving for epsilon, Initial residual = 0.100419, Final residual = 0.00855865, No Iterations 5
smoothSolver:  Solving for k, Initial residual = 0.195937, Final residual = 0.0177173, No Iterations 5
ExecutionTime = 0.08 s  ClockTime = 0 s

Time = 6

smoothSolver:  Solving for Ux, Initial residual = 0.0127287, Final residual = 0.00106978, No Iterations 5
smoothSolver:  Solving for Uy, Initial residual = 0.404785, Final residual = 0.0358236, No Iterations 3
Pressure gradient source: uncorrected Ubar = 1.00035, pressure gradient = 0.0581079
GAMG:  Solving for p, Initial residual = 0.115201, Final residual = 0.000932489, No Iterations 4
time step continuity errors : sum local = 0.000183653, global = -4.07989e-17, cumulative = -1.23181e-16
Pressure gradient source: uncorrected Ubar = 1.00007, pressure gradient = 0.0862712
smoothSolver:  Solving for epsilon, Initial residual = 0.0918956, Final residual = 0.00823361, No Iterations 5
smoothSolver:  Solving for k, Initial residual = 0.180949, Final residual = 0.0166838, No Iterations 5
ExecutionTime = 0.08 s  ClockTime = 0 s

Time = 7

smoothSolver:  Solving for Ux, Initial residual = 0.0106544, Final residual = 0.00098473, No Iterations 5
smoothSolver:  Solving for Uy, Initial residual = 0.401003, Final residual = 0.0243818, No Iterations 4
Pressure gradient source: uncorrected Ubar = 1.00038, pressure gradient = 0.0474951
GAMG:  Solving for p, Initial residual = 0.112532, Final residual = 0.000927716, No Iterations 4
time step continuity errors : sum local = 0.000148638, global = 1.54944e-17, cumulative = -1.07686e-16
Pressure gradient source: uncorrected Ubar = 1.00006, pressure gradient = 0.079946
smoothSolver:  Solving for epsilon, Initial residual = 0.0847755, Final residual = 0.00785121, No Iterations 5
smoothSolver:  Solving for k, Initial residual = 0.170886, Final residual = 0.0167092, No Iterations 5
ExecutionTime = 0.09 s  ClockTime = 0 s

Time = 8

smoothSolver:  Solving for Ux, Initial residual = 0.00922851, Final residual = 0.000921456, No Iterations 5
smoothSolver:  Solving for Uy, Initial residual = 0.371926, Final residual = 0.0251155, No Iterations 4
Pressure gradient source: uncorrected Ubar = 1.00031, pressure gradient = 0.0475895
GAMG:  Solving for p, Initial residual = 0.102331, Final residual = 0.000965307, No Iterations 3
time step continuity errors : sum local = 0.000128819, global = -6.6365e-18, cumulative = -1.14323e-16
Pressure gradient source: uncorrected Ubar = 1.00005, pressure gradient = 0.0747315
smoothSolver:  Solving for epsilon, Initial residual = 0.0797974, Final residual = 0.00759338, No Iterations 5
smoothSolver:  Solving for k, Initial residual = 0.164622, Final residual = 0.0161557, No Iterations 5
ExecutionTime = 0.09 s  ClockTime = 0 s

Time = 9

smoothSolver:  Solving for Ux, Initial residual = 0.00817287, Final residual = 0.000568015, No Iterations 6
smoothSolver:  Solving for Uy, Initial residual = 0.339883, Final residual = 0.0242128, No Iterations 4
Pressure gradient source: uncorrected Ubar = 1.00025, pressure gradient = 0.0476239
GAMG:  Solving for p, Initial residual = 0.0960537, Final residual = 0.00062535, No Iterations 4
time step continuity errors : sum local = 6.88141e-05, global = -7.28276e-18, cumulative = -1.21606e-16
Pressure gradient source: uncorrected Ubar = 1.00004, pressure gradient = 0.0702824
smoothSolver:  Solving for epsilon, Initial residual = 0.075236, Final residual = 0.00728899, No Iterations 5
smoothSolver:  Solving for k, Initial residual = 0.159536, Final residual = 0.0103447, No Iterations 6
ExecutionTime = 0.1 s  ClockTime = 0 s

Time = 10

smoothSolver:  Solving for Ux, Initial residual = 0.00738329, Final residual = 0.000540868, No Iterations 6
smoothSolver:  Solving for Uy, Initial residual = 0.315004, Final residual = 0.0231338, No Iterations 4
Pressure gradient source: uncorrected Ubar = 1.00014, pressure gradient = 0.0546531
GAMG:  Solving for p, Initial residual = 0.0871114, Final residual = 0.000759155, No Iterations 4
time step continuity errors : sum local = 7.4232e-05, global = -6.21481e-17, cumulative = -1.83754e-16
Pressure gradient source: uncorrected Ubar = 1.00003, pressure gradient = 0.0673291
smoothSolver:  Solving for epsilon, Initial residual = 0.0723961, Final residual = 0.00713866, No Iterations 5
smoothSolver:  Solving for k, Initial residual = 0.157411, Final residual = 0.0104224, No Iterations 6
ExecutionTime = 0.1 s  ClockTime = 0 s

Time = 11

smoothSolver:  Solving for Ux, Initial residual = 0.00684702, Final residual = 0.000519506, No Iterations 6
smoothSolver:  Solving for Uy, Initial residual = 0.300374, Final residual = 0.0215152, No Iterations 4
Pressure gradient source: uncorrected Ubar = 1.0001, pressure gradient = 0.0563838
GAMG:  Solving for p, Initial residual = 0.0841088, Final residual = 0.000806559, No Iterations 4
time step continuity errors : sum local = 6.85632e-05, global = -7.05105e-17, cumulative = -2.54264e-16
Pressure gradient source: uncorrected Ubar = 1.00002, pressure gradient = 0.0648669
smoothSolver:  Solving for epsilon, Initial residual = 0.068693, Final residual = 0.00683857, No Iterations 5
smoothSolver:  Solving for k, Initial residual = 0.156631, Final residual = 0.0104926, No Iterations 6
ExecutionTime = 0.11 s  ClockTime = 0 s

Time = 12

smoothSolver:  Solving for Ux, Initial residual = 0.00657964, Final residual = 0.000502998, No Iterations 6
smoothSolver:  Solving for Uy, Initial residual = 0.292424, Final residual = 0.0197441, No Iterations 4
Pressure gradient source: uncorrected Ubar = 1.00003, pressure gradient = 0.0619837
GAMG:  Solving for p, Initial residual = 0.0810909, Final residual = 0.000716006, No Iterations 4
time step continuity errors : sum local = 5.31679e-05, global = -1.44686e-17, cumulative = -2.68733e-16
Pressure gradient source: uncorrected Ubar = 1.00001, pressure gradient = 0.0635198
smoothSolver:  Solving for epsilon, Initial residual = 0.0666874, Final residual = 0.00426792, No Iterations 6
smoothSolver:  Solving for k, Initial residual = 0.15489, Final residual = 0.0105015, No Iterations 6
ExecutionTime = 0.11 s  ClockTime = 0 s

Time = 13

smoothSolver:  Solving for Ux, Initial residual = 0.00640485, Final residual = 0.000488124, No Iterations 6
smoothSolver:  Solving for Uy, Initial residual = 0.276649, Final residual = 0.019015, No Iterations 4
Pressure gradient source: uncorrected Ubar = 1.00001, pressure gradient = 0.062366
GAMG:  Solving for p, Initial residual = 0.0790714, Final residual = 0.000611069, No Iterations 4
time step continuity errors : sum local = 3.93697e-05, global = -6.38041e-18, cumulative = -2.75113e-16
Pressure gradient source: uncorrected Ubar = 1.00001, pressure gradient = 0.0623505
smoothSolver:  Solving for epsilon, Initial residual = 0.0643717, Final residual = 0.00418752, No Iterations 6
smoothSolver:  Solving for k, Initial residual = 0.153408, Final residual = 0.0107006, No Iterations 6
ExecutionTime = 0.12 s  ClockTime = 0 s

Time = 14

smoothSolver:  Solving for Ux, Initial residual = 0.00625132, Final residual = 0.00047463, No Iterations 6
smoothSolver:  Solving for Uy, Initial residual = 0.244192, Final residual = 0.0172978, No Iterations 4
Pressure gradient source: uncorrected Ubar = 0.999991, pressure gradient = 0.0633225
GAMG:  Solving for p, Initial residual = 0.0739557, Final residual = 0.000488729, No Iterations 4
time step continuity errors : sum local = 2.74149e-05, global = -1.1807e-16, cumulative = -3.93184e-16
Pressure gradient source: uncorrected Ubar = 1.00001, pressure gradient = 0.0614561
smoothSolver:  Solving for epsilon, Initial residual = 0.062317, Final residual = 0.00412325, No Iterations 6
smoothSolver:  Solving for k, Initial residual = 0.151694, Final residual = 0.0106533, No Iterations 6
ExecutionTime = 0.12 s  ClockTime = 0 s

Time = 15

smoothSolver:  Solving for Ux, Initial residual = 0.00611553, Final residual = 0.000462904, No Iterations 6
smoothSolver:  Solving for Uy, Initial residual = 0.222139, Final residual = 0.0162406, No Iterations 4
Pressure gradient source: uncorrected Ubar = 0.999982, pressure gradient = 0.0635133
GAMG:  Solving for p, Initial residual = 0.0714161, Final residual = 0.000659083, No Iterations 3
time step continuity errors : sum local = 3.18111e-05, global = -3.49871e-17, cumulative = -4.28171e-16
Pressure gradient source: uncorrected Ubar = 1.00001, pressure gradient = 0.0607141
smoothSolver:  Solving for epsilon, Initial residual = 0.0602417, Final residual = 0.00403438, No Iterations 6
smoothSolver:  Solving for k, Initial residual = 0.149822, Final residual = 0.0107782, No Iterations 6
ExecutionTime = 0.13 s  ClockTime = 0 s

Time = 16

smoothSolver:  Solving for Ux, Initial residual = 0.00599747, Final residual = 0.00045271, No Iterations 6
smoothSolver:  Solving for Uy, Initial residual = 0.204055, Final residual = 0.015574, No Iterations 4
Pressure gradient source: uncorrected Ubar = 0.999972, pressure gradient = 0.063884
GAMG:  Solving for p, Initial residual = 0.069723, Final residual = 0.000412294, No Iterations 4
time step continuity errors : sum local = 1.75296e-05, global = 8.43704e-18, cumulative = -4.19734e-16
Pressure gradient source: uncorrected Ubar = 1.00001, pressure gradient = 0.0601228
smoothSolver:  Solving for epsilon, Initial residual = 0.058232, Final residual = 0.00394545, No Iterations 6
smoothSolver:  Solving for k, Initial residual = 0.148182, Final residual = 0.0108237, No Iterations 6
ExecutionTime = 0.13 s  ClockTime = 0 s

Time = 17

smoothSolver:  Solving for Ux, Initial residual = 0.00589104, Final residual = 0.000444192, No Iterations 6
smoothSolver:  Solving for Uy, Initial residual = 0.189631, Final residual = 0.0152152, No Iterations 4
Pressure gradient source: uncorrected Ubar = 0.999958, pressure gradient = 0.0649715
GAMG:  Solving for p, Initial residual = 0.0695276, Final residual = 0.000562263, No Iterations 3
time step continuity errors : sum local = 2.05909e-05, global = -1.70466e-17, cumulative = -4.3678e-16
Pressure gradient source: uncorrected Ubar = 1, pressure gradient = 0.0597626
smoothSolver:  Solving for epsilon, Initial residual = 0.0566881, Final residual = 0.00388281, No Iterations 6
smoothSolver:  Solving for k, Initial residual = 0.145381, Final residual = 0.0106918, No Iterations 6
ExecutionTime = 0.14 s  ClockTime = 0 s

Time = 18

smoothSolver:  Solving for Ux, Initial residual = 0.00579076, Final residual = 0.000436533, No Iterations 6
smoothSolver:  Solving for Uy, Initial residual = 0.177666, Final residual = 0.0161411, No Iterations 4
Pressure gradient source: uncorrected Ubar = 0.999956, pressure gradient = 0.0649165
GAMG:  Solving for p, Initial residual = 0.0681097, Final residual = 0.000677509, No Iterations 3
time step continuity errors : sum local = 2.25154e-05, global = 2.62808e-17, cumulative = -4.105e-16
Pressure gradient source: uncorrected Ubar = 1, pressure gradient = 0.0594445
smoothSolver:  Solving for epsilon, Initial residual = 0.055203, Final residual = 0.00382207, No Iterations 6
smoothSolver:  Solving for k, Initial residual = 0.142506, Final residual = 0.0106983, No Iterations 6
ExecutionTime = 0.14 s  ClockTime = 0 s

Time = 19

smoothSolver:  Solving for Ux, Initial residual = 0.00569481, Final residual = 0.000429243, No Iterations 6
smoothSolver:  Solving for Uy, Initial residual = 0.164825, Final residual = 0.0148636, No Iterations 4
Pressure gradient source: uncorrected Ubar = 0.999957, pressure gradient = 0.0644895
GAMG:  Solving for p, Initial residual = 0.0666627, Final residual = 0.000465638, No Iterations 3
time step continuity errors : sum local = 1.44466e-05, global = -2.45097e-17, cumulative = -4.35009e-16
Pressure gradient source: uncorrected Ubar = 1, pressure gradient = 0.0591223
smoothSolver:  Solving for epsilon, Initial residual = 0.0538665, Final residual = 0.0037613, No Iterations 6
smoothSolver:  Solving for k, Initial residual = 0.138493, Final residual = 0.0104742, No Iterations 6
ExecutionTime = 0.14 s  ClockTime = 0 s

Time = 20

smoothSolver:  Solving for Ux, Initial residual = 0.00560398, Final residual = 0.000422489, No Iterations 6
smoothSolver:  Solving for Uy, Initial residual = 0.150042, Final residual = 0.0144712, No Iterations 4
Pressure gradient source: uncorrected Ubar = 0.999954, pressure gradient = 0.0645726
GAMG:  Solving for p, Initial residual = 0.0636937, Final residual = 0.000622135, No Iterations 3
time step continuity errors : sum local = 1.69267e-05, global = 4.04961e-17, cumulative = -3.94513e-16
Pressure gradient source: uncorrected Ubar = 1, pressure gradient = 0.0588625
smoothSolver:  Solving for epsilon, Initial residual = 0.0526541, Final residual = 0.0037113, No Iterations 6
smoothSolver:  Solving for k, Initial residual = 0.133919, Final residual = 0.0102885, No Iterations 6
ExecutionTime = 0.15 s  ClockTime = 0 s

Time = 21

smoothSolver:  Solving for Ux, Initial residual = 0.00552094, Final residual = 0.000416435, No Iterations 6
smoothSolver:  Solving for Uy, Initial residual = 0.140056, Final residual = 0.00929148, No Iterations 5
Pressure gradient source: uncorrected Ubar = 0.999952, pressure gradient = 0.0645288
GAMG:  Solving for p, Initial residual = 0.0626342, Final residual = 0.000547484, No Iterations 4
time step continuity errors : sum local = 1.30104e-05, global = -6.08894e-17, cumulative = -4.55403e-16
Pressure gradient source: uncorrected Ubar = 1, pressure gradient = 0.0586456
smoothSolver:  Solving for epsilon, Initial residual = 0.051219, Final residual = 0.00362853, No Iterations 6
smoothSolver:  Solving for k, Initial residual = 0.128331, Final residual = 0.00981644, No Iterations 6
ExecutionTime = 0.15 s  ClockTime = 0 s

Time = 22

smoothSolver:  Solving for Ux, Initial residual = 0.00544482, Final residual = 0.000411282, No Iterations 6
smoothSolver:  Solving for Uy, Initial residual = 0.131913, Final residual = 0.00863032, No Iterations 5
Pressure gradient source: uncorrected Ubar = 0.999946, pressure gradient = 0.0650872
GAMG:  Solving for p, Initial residual = 0.0617568, Final residual = 0.000344784, No Iterations 3
time step continuity errors : sum local = 7.23167e-06, global = -3.28833e-17, cumulative = -4.88286e-16
Pressure gradient source: uncorrected Ubar = 1, pressure gradient = 0.0585529
smoothSolver:  Solving for epsilon, Initial residual = 0.0503621, Final residual = 0.00359807, No Iterations 6
smoothSolver:  Solving for k, Initial residual = 0.121803, Final residual = 0.00948104, No Iterations 6
ExecutionTime = 0.16 s  ClockTime = 0 s

Time = 23

smoothSolver:  Solving for Ux, Initial residual = 0.00537371, Final residual = 0.000406217, No Iterations 6
smoothSolver:  Solving for Uy, Initial residual = 0.127369, Final residual = 0.0084564, No Iterations 5
Pressure gradient source: uncorrected Ubar = 0.999952, pressure gradient = 0.0642321
GAMG:  Solving for p, Initial residual = 0.061242, Final residual = 0.00056978, No Iterations 3
time step continuity errors : sum local = 1.06704e-05, global = -1.82671e-17, cumulative = -5.06553e-16
Pressure gradient source: uncorrected Ubar = 1, pressure gradient = 0.0583743
smoothSolver:  Solving for epsilon, Initial residual = 0.0492625, Final residual = 0.00353851, No Iterations 6
smoothSolver:  Solving for k, Initial residual = 0.115029, Final residual = 0.00897128, No Iterations 6
ExecutionTime = 0.16 s  ClockTime = 0 s

Time = 24

smoothSolver:  Solving for Ux, Initial residual = 0.00529858, Final residual = 0.000400698, No Iterations 6
smoothSolver:  Solving for Uy, Initial residual = 0.121763, Final residual = 0.00831079, No Iterations 5
Pressure gradient source: uncorrected Ubar = 0.999956, pressure gradient = 0.0635881
GAMG:  Solving for p, Initial residual = 0.0605112, Final residual = 0.000602571, No Iterations 4
time step continuity errors : sum local = 1.0364e-05, global = 8.90099e-18, cumulative = -4.97652e-16
Pressure gradient source: uncorrected Ubar = 1, pressure gradient = 0.0581511
smoothSolver:  Solving for epsilon, Initial residual = 0.0485187, Final residual = 0.00351025, No Iterations 6
smoothSolver:  Solving for k, Initial residual = 0.107532, Final residual = 0.00847321, No Iterations 6
ExecutionTime = 0.17 s  ClockTime = 0 s

Time = 25

smoothSolver:  Solving for Ux, Initial residual = 0.00522683, Final residual = 0.00039566, No Iterations 6
smoothSolver:  Solving for Uy, Initial residual = 0.117301, Final residual = 0.00813835, No Iterations 5
Pressure gradient source: uncorrected Ubar = 0.999957, pressure gradient = 0.0633321
GAMG:  Solving for p, Initial residual = 0.05785, Final residual = 0.000573796, No Iterations 4
time step continuity errors : sum local = 8.87993e-06, global = 3.83039e-17, cumulative = -4.59348e-16
Pressure gradient source: uncorrected Ubar = 1, pressure gradient = 0.0579433
smoothSolver:  Solving for epsilon, Initial residual = 0.04716, Final residual = 0.00342398, No Iterations 6
smoothSolver:  Solving for k, Initial residual = 0.099627, Final residual = 0.00790286, No Iterations 6
ExecutionTime = 0.17 s  ClockTime = 0 s

Time = 26

smoothSolver:  Solving for Ux, Initial residual = 0.00516489, Final residual = 0.00039134, No Iterations 6
smoothSolver:  Solving for Uy, Initial residual = 0.115326, Final residual = 0.00756816, No Iterations 5
Pressure gradient source: uncorrected Ubar = 0.99995, pressure gradient = 0.0639516
GAMG:  Solving for p, Initial residual = 0.0582021, Final residual = 0.000526528, No Iterations 4
time step continuity errors : sum local = 7.3237e-06, global = 3.47493e-17, cumulative = -4.24599e-16
Pressure gradient source: uncorrected Ubar = 1, pressure gradient = 0.0578628
smoothSolver:  Solving for epsilon, Initial residual = 0.0466058, Final residual = 0.00340448, No Iterations 6
smoothSolver:  Solving for k, Initial residual = 0.0915579, Final residual = 0.00725102, No Iterations 6
ExecutionTime = 0.18 s  ClockTime = 0 s

Time = 27

smoothSolver:  Solving for Ux, Initial residual = 0.005099, Final residual = 0.000386724, No Iterations 6
smoothSolver:  Solving for Uy, Initial residual = 0.109882, Final residual = 0.00729299, No Iterations 5
Pressure gradient source: uncorrected Ubar = 0.999958, pressure gradient = 0.0629274
GAMG:  Solving for p, Initial residual = 0.0582378, Final residual = 0.000497344, No Iterations 4
time step continuity errors : sum local = 6.22192e-06, global = 6.07091e-18, cumulative = -4.18528e-16
Pressure gradient source: uncorrected Ubar = 1, pressure gradient = 0.0576797
smoothSolver:  Solving for epsilon, Initial residual = 0.0459344, Final residual = 0.00337487, No Iterations 6
smoothSolver:  Solving for k, Initial residual = 0.0836591, Final residual = 0.0066631, No Iterations 6
ExecutionTime = 0.18 s  ClockTime = 0 s

Time = 28

smoothSolver:  Solving for Ux, Initial residual = 0.00503217, Final residual = 0.000382016, No Iterations 6
smoothSolver:  Solving for Uy, Initial residual = 0.107337, Final residual = 0.00709713, No Iterations 5
Pressure gradient source: uncorrected Ubar = 0.99996, pressure gradient = 0.0624253
GAMG:  Solving for p, Initial residual = 0.0564728, Final residual = 0.000509649, No Iterations 3
time step continuity errors : sum local = 5.74505e-06, global = -2.43752e-17, cumulative = -4.42903e-16
Pressure gradient source: uncorrected Ubar = 1, pressure gradient = 0.0574761
smoothSolver:  Solving for epsilon, Initial residual = 0.0452172, Final residual = 0.00333974, No Iterations 6
smoothSolver:  Solving for k, Initial residual = 0.0762976, Final residual = 0.00612433, No Iterations 6
ExecutionTime = 0.19 s  ClockTime = 0 s

Time = 29

smoothSolver:  Solving for Ux, Initial residual = 0.00496736, Final residual = 0.00037751, No Iterations 6
smoothSolver:  Solving for Uy, Initial residual = 0.103903, Final residual = 0.00707002, No Iterations 5
Pressure gradient source: uncorrected Ubar = 0.999961, pressure gradient = 0.0621739
GAMG:  Solving for p, Initial residual = 0.0560393, Final residual = 0.000396136, No Iterations 4
time step continuity errors : sum local = 4.00682e-06, global = -5.77961e-18, cumulative = -4.48683e-16
Pressure gradient source: uncorrected Ubar = 1, pressure gradient = 0.0572873
smoothSolver:  Solving for epsilon, Initial residual = 0.0445114, Final residual = 0.00330452, No Iterations 6
smoothSolver:  Solving for k, Initial residual = 0.069483, Final residual = 0.00555192, No Iterations 6
ExecutionTime = 0.19 s  ClockTime = 0 s

Time = 30

smoothSolver:  Solving for Ux, Initial residual = 0.00490817, Final residual = 0.000373382, No Iterations 6
smoothSolver:  Solving for Uy, Initial residual = 0.104306, Final residual = 0.00750231, No Iterations 5
Pressure gradient source: uncorrected Ubar = 0.999959, pressure gradient = 0.0622403
GAMG:  Solving for p, Initial residual = 0.0566249, Final residual = 0.000374653, No Iterations 4
time step continuity errors : sum local = 3.42931e-06, global = -1.28309e-17, cumulative = -4.61514e-16
Pressure gradient source: uncorrected Ubar = 1, pressure gradient = 0.0571497
smoothSolver:  Solving for epsilon, Initial residual = 0.0435307, Final residual = 0.00323646, No Iterations 6
smoothSolver:  Solving for k, Initial residual = 0.063076, Final residual = 0.005097, No Iterations 6
ExecutionTime = 0.2 s  ClockTime = 0 s

Time = 31

smoothSolver:  Solving for Ux, Initial residual = 0.00485157, Final residual = 0.000369482, No Iterations 6
smoothSolver:  Solving for Uy, Initial residual = 0.102527, Final residual = 0.00724109, No Iterations 5
Pressure gradient source: uncorrected Ubar = 0.99996, pressure gradient = 0.0619908
GAMG:  Solving for p, Initial residual = 0.0578721, Final residual = 0.000430073, No Iterations 4
time step continuity errors : sum local = 3.53288e-06, global = 1.91191e-17, cumulative = -4.42395e-16
Pressure gradient source: uncorrected Ubar = 1, pressure gradient = 0.0570173
smoothSolver:  Solving for epsilon, Initial residual = 0.0428306, Final residual = 0.00319974, No Iterations 6
smoothSolver:  Solving for k, Initial residual = 0.0578404, Final residual = 0.00467085, No Iterations 6
ExecutionTime = 0.2 s  ClockTime = 0 s

Time = 32

smoothSolver:  Solving for Ux, Initial residual = 0.00479262, Final residual = 0.000365517, No Iterations 6
smoothSolver:  Solving for Uy, Initial residual = 0.097698, Final residual = 0.00687664, No Iterations 5
Pressure gradient source: uncorrected Ubar = 0.999963, pressure gradient = 0.0615398
GAMG:  Solving for p, Initial residual = 0.0580305, Final residual = 0.000468216, No Iterations 4
time step continuity errors : sum local = 3.4704e-06, global = -4.17427e-17, cumulative = -4.84137e-16
Pressure gradient source: uncorrected Ubar = 1, pressure gradient = 0.056864
smoothSolver:  Solving for epsilon, Initial residual = 0.0420739, Final residual = 0.00315376, No Iterations 6
smoothSolver:  Solving for k, Initial residual = 0.0532214, Final residual = 0.00432451, No Iterations 6
ExecutionTime = 0.21 s  ClockTime = 0 s

Time = 33

smoothSolver:  Solving for Ux, Initial residual = 0.00473524, Final residual = 0.000361642, No Iterations 6
smoothSolver:  Solving for Uy, Initial residual = 0.0987584, Final residual = 0.00707422, No Iterations 5
Pressure gradient source: uncorrected Ubar = 0.999963, pressure gradient = 0.0613589
GAMG:  Solving for p, Initial residual = 0.0590848, Final residual = 0.000427061, No Iterations 4
time step continuity errors : sum local = 2.84431e-06, global = 7.95758e-17, cumulative = -4.04561e-16
Pressure gradient source: uncorrected Ubar = 1, pressure gradient = 0.056726
smoothSolver:  Solving for epsilon, Initial residual = 0.0414936, Final residual = 0.00312728, No Iterations 6
smoothSolver:  Solving for k, Initial residual = 0.0490862, Final residual = 0.00398236, No Iterations 6
ExecutionTime = 0.21 s  ClockTime = 0 s

Time = 34

smoothSolver:  Solving for Ux, Initial residual = 0.00468123, Final residual = 0.000358041, No Iterations 6
smoothSolver:  Solving for Uy, Initial residual = 0.0958634, Final residual = 0.00704053, No Iterations 5
Pressure gradient source: uncorrected Ubar = 0.999962, pressure gradient = 0.0612646
GAMG:  Solving for p, Initial residual = 0.058256, Final residual = 0.000379931, No Iterations 4
time step continuity errors : sum local = 2.29734e-06, global = -3.51859e-17, cumulative = -4.39747e-16
Pressure gradient source: uncorrected Ubar = 1, pressure gradient = 0.056612
smoothSolver:  Solving for epsilon, Initial residual = 0.0403606, Final residual = 0.00304323, No Iterations 6
smoothSolver:  Solving for k, Initial residual = 0.0456275, Final residual = 0.00372933, No Iterations 6
ExecutionTime = 0.22 s  ClockTime = 0 s

Time = 35

smoothSolver:  Solving for Ux, Initial residual = 0.00462582, Final residual = 0.000354502, No Iterations 6
smoothSolver:  Solving for Uy, Initial residual = 0.0953751, Final residual = 0.00663984, No Iterations 5
Pressure gradient source: uncorrected Ubar = 0.999963, pressure gradient = 0.0610455
GAMG:  Solving for p, Initial residual = 0.0575379, Final residual = 0.00039067, No Iterations 4
time step continuity errors : sum local = 2.10546e-06, global = 1.64076e-17, cumulative = -4.2334e-16
Pressure gradient source: uncorrected Ubar = 1, pressure gradient = 0.0565029
smoothSolver:  Solving for epsilon, Initial residual = 0.0392862, Final residual = 0.00296849, No Iterations 6
smoothSolver:  Solving for k, Initial residual = 0.0425338, Final residual = 0.00345469, No Iterations 6
ExecutionTime = 0.22 s  ClockTime = 0 s

Time = 36

smoothSolver:  Solving for Ux, Initial residual = 0.00457365, Final residual = 0.000351143, No Iterations 6
smoothSolver:  Solving for Uy, Initial residual = 0.0938186, Final residual = 0.00663228, No Iterations 5
Pressure gradient source: uncorrected Ubar = 0.999964, pressure gradient = 0.0608947
GAMG:  Solving for p, Initial residual = 0.0573695, Final residual = 0.000411641, No Iterations 4
time step continuity errors : sum local = 2.00723e-06, global = 4.16379e-17, cumulative = -3.81702e-16
Pressure gradient source: uncorrected Ubar = 1, pressure gradient = 0.0564087
smoothSolver:  Solving for epsilon, Initial residual = 0.0387756, Final residual = 0.00294587, No Iterations 6
smoothSolver:  Solving for k, Initial residual = 0.0398665, Final residual = 0.00327463, No Iterations 6
ExecutionTime = 0.24 s  ClockTime = 0 s

Time = 37

smoothSolver:  Solving for Ux, Initial residual = 0.00451927, Final residual = 0.000347563, No Iterations 6
smoothSolver:  Solving for Uy, Initial residual = 0.0933344, Final residual = 0.00671654, No Iterations 5
Pressure gradient source: uncorrected Ubar = 0.999968, pressure gradient = 0.0602915
GAMG:  Solving for p, Initial residual = 0.0567802, Final residual = 0.000436034, No Iterations 4
time step continuity errors : sum local = 1.91925e-06, global = -1.9379e-17, cumulative = -4.01081e-16
Pressure gradient source: uncorrected Ubar = 1, pressure gradient = 0.056266
smoothSolver:  Solving for epsilon, Initial residual = 0.0377687, Final residual = 0.00287731, No Iterations 6
smoothSolver:  Solving for k, Initial residual = 0.0375012, Final residual = 0.00305077, No Iterations 6
ExecutionTime = 0.24 s  ClockTime = 0 s

Time = 38

smoothSolver:  Solving for Ux, Initial residual = 0.00446736, Final residual = 0.000344207, No Iterations 6
smoothSolver:  Solving for Uy, Initial residual = 0.092702, Final residual = 0.00702831, No Iterations 5
Pressure gradient source: uncorrected Ubar = 0.999967, pressure gradient = 0.0602851
GAMG:  Solving for p, Initial residual = 0.0585502, Final residual = 0.000543664, No Iterations 4
time step continuity errors : sum local = 2.16938e-06, global = 1.58742e-17, cumulative = -3.85207e-16
Pressure gradient source: uncorrected Ubar = 1, pressure gradient = 0.0561595
smoothSolver:  Solving for epsilon, Initial residual = 0.0368011, Final residual = 0.00281353, No Iterations 6
smoothSolver:  Solving for k, Initial residual = 0.035338, Final residual = 0.00290853, No Iterations 6
ExecutionTime = 0.24 s  ClockTime = 0 s

Time = 39

smoothSolver:  Solving for Ux, Initial residual = 0.00441507, Final residual = 0.00034099, No Iterations 6
smoothSolver:  Solving for Uy, Initial residual = 0.0915038, Final residual = 0.00659122, No Iterations 5
Pressure gradient source: uncorrected Ubar = 0.999968, pressure gradient = 0.0600366
GAMG:  Solving for p, Initial residual = 0.0606368, Final residual = 0.000599658, No Iterations 4
time step continuity errors : sum local = 2.15437e-06, global = 3.92148e-17, cumulative = -3.45992e-16
Pressure gradient source: uncorrected Ubar = 1, pressure gradient = 0.0560525
smoothSolver:  Solving for epsilon, Initial residual = 0.0358908, Final residual = 0.00273369, No Iterations 6
smoothSolver:  Solving for k, Initial residual = 0.0334038, Final residual = 0.00272795, No Iterations 6
ExecutionTime = 0.25 s  ClockTime = 0 s

Time = 40

smoothSolver:  Solving for Ux, Initial residual = 0.00436395, Final residual = 0.000337769, No Iterations 6
smoothSolver:  Solving for Uy, Initial residual = 0.086796, Final residual = 0.00606244, No Iterations 5
Pressure gradient source: uncorrected Ubar = 0.99997, pressure gradient = 0.0596689
GAMG:  Solving for p, Initial residual = 0.060205, Final residual = 0.000568126, No Iterations 4
time step continuity errors : sum local = 1.85977e-06, global = -5.83717e-18, cumulative = -3.51829e-16
Pressure gradient source: uncorrected Ubar = 1, pressure gradient = 0.0559293
smoothSolver:  Solving for epsilon, Initial residual = 0.0349016, Final residual = 0.00265565, No Iterations 6
smoothSolver:  Solving for k, Initial residual = 0.0317227, Final residual = 0.00261557, No Iterations 6
ExecutionTime = 0.25 s  ClockTime = 0 s

Time = 41

smoothSolver:  Solving for Ux, Initial residual = 0.00431235, Final residual = 0.000334502, No Iterations 6
smoothSolver:  Solving for Uy, Initial residual = 0.0870034, Final residual = 0.00617507, No Iterations 5
Pressure gradient source: uncorrected Ubar = 0.999972, pressure gradient = 0.0593307
GAMG:  Solving for p, Initial residual = 0.0593841, Final residual = 0.000279105, No Iterations 5
time step continuity errors : sum local = 8.48715e-07, global = -7.508e-17, cumulative = -4.26909e-16
Pressure gradient source: uncorrected Ubar = 1, pressure gradient = 0.0557952
smoothSolver:  Solving for epsilon, Initial residual = 0.0339254, Final residual = 0.00257216, No Iterations 6
smoothSolver:  Solving for k, Initial residual = 0.03015, Final residual = 0.0024689, No Iterations 6
ExecutionTime = 0.26 s  ClockTime = 0 s

Time = 42

smoothSolver:  Solving for Ux, Initial residual = 0.00426405, Final residual = 0.000331392, No Iterations 6
smoothSolver:  Solving for Uy, Initial residual = 0.0851092, Final residual = 0.00770497, No Iterations 4
Pressure gradient source: uncorrected Ubar = 0.999973, pressure gradient = 0.059098
GAMG:  Solving for p, Initial residual = 0.0635743, Final residual = 0.000372917, No Iterations 4
time step continuity errors : sum local = 9.68203e-07, global = -4.2013e-17, cumulative = -4.68922e-16
Pressure gradient source: uncorrected Ubar = 1, pressure gradient = 0.0556652
smoothSolver:  Solving for epsilon, Initial residual = 0.0330586, Final residual = 0.00251451, No Iterations 6
smoothSolver:  Solving for k, Initial residual = 0.0288104, Final residual = 0.00237721, No Iterations 6
ExecutionTime = 0.26 s  ClockTime = 0 s

Time = 43

smoothSolver:  Solving for Ux, Initial residual = 0.00421671, Final residual = 0.000328393, No Iterations 6
smoothSolver:  Solving for Uy, Initial residual = 0.0850527, Final residual = 0.00551404, No Iterations 5
Pressure gradient source: uncorrected Ubar = 0.999973, pressure gradient = 0.0588808
GAMG:  Solving for p, Initial residual = 0.0630576, Final residual = 0.000533201, No Iterations 4
time step continuity errors : sum local = 1.27415e-06, global = -6.96755e-17, cumulative = -5.38598e-16
Pressure gradient source: uncorrected Ubar = 1, pressure gradient = 0.0555405
smoothSolver:  Solving for epsilon, Initial residual = 0.0320741, Final residual = 0.00242813, No Iterations 6
smoothSolver:  Solving for k, Initial residual = 0.0275069, Final residual = 0.00226384, No Iterations 6
ExecutionTime = 0.27 s  ClockTime = 0 s

Time = 44

smoothSolver:  Solving for Ux, Initial residual = 0.00417009, Final residual = 0.000325492, No Iterations 6
smoothSolver:  Solving for Uy, Initial residual = 0.0847999, Final residual = 0.00762679, No Iterations 4
Pressure gradient source: uncorrected Ubar = 0.999975, pressure gradient = 0.0585886
GAMG:  Solving for p, Initial residual = 0.0642149, Final residual = 0.000614043, No Iterations 4
time step continuity errors : sum local = 1.34246e-06, global = 2.39856e-17, cumulative = -5.14612e-16
Pressure gradient source: uncorrected Ubar = 1, pressure gradient = 0.0554101
smoothSolver:  Solving for epsilon, Initial residual = 0.0311028, Final residual = 0.00235374, No Iterations 6
smoothSolver:  Solving for k, Initial residual = 0.0264261, Final residual = 0.00216868, No Iterations 6
ExecutionTime = 0.27 s  ClockTime = 0 s

Time = 45

smoothSolver:  Solving for Ux, Initial residual = 0.00412186, Final residual = 0.000322437, No Iterations 6
smoothSolver:  Solving for Uy, Initial residual = 0.0831953, Final residual = 0.00774914, No Iterations 4
Pressure gradient source: uncorrected Ubar = 0.999977, pressure gradient = 0.0581649
GAMG:  Solving for p, Initial residual = 0.066945, Final residual = 0.000507241, No Iterations 4
time step continuity errors : sum local = 1.02721e-06, global = -2.81086e-17, cumulative = -5.42721e-16
Pressure gradient source: uncorrected Ubar = 1, pressure gradient = 0.055257
smoothSolver:  Solving for epsilon, Initial residual = 0.0301774, Final residual = 0.00227973, No Iterations 6
smoothSolver:  Solving for k, Initial residual = 0.0253134, Final residual = 0.00209967, No Iterations 6
ExecutionTime = 0.28 s  ClockTime = 0 s

Time = 46

smoothSolver:  Solving for Ux, Initial residual = 0.00407759, Final residual = 0.000319638, No Iterations 6
smoothSolver:  Solving for Uy, Initial residual = 0.0800498, Final residual = 0.00690883, No Iterations 4
Pressure gradient source: uncorrected Ubar = 0.999977, pressure gradient = 0.0579917
GAMG:  Solving for p, Initial residual = 0.0656017, Final residual = 0.00055277, No Iterations 4
time step continuity errors : sum local = 1.05037e-06, global = -4.68823e-17, cumulative = -5.89603e-16
Pressure gradient source: uncorrected Ubar = 1, pressure gradient = 0.0551161
smoothSolver:  Solving for epsilon, Initial residual = 0.0290102, Final residual = 0.0021869, No Iterations 6
smoothSolver:  Solving for k, Initial residual = 0.024373, Final residual = 0.0020082, No Iterations 6
ExecutionTime = 0.28 s  ClockTime = 0 s

Time = 47

smoothSolver:  Solving for Ux, Initial residual = 0.0040347, Final residual = 0.000316957, No Iterations 6
smoothSolver:  Solving for Uy, Initial residual = 0.0816516, Final residual = 0.00709764, No Iterations 4
Pressure gradient source: uncorrected Ubar = 0.999977, pressure gradient = 0.0578341
GAMG:  Solving for p, Initial residual = 0.065196, Final residual = 0.000624958, No Iterations 4
time step continuity errors : sum local = 1.08628e-06, global = -2.87522e-17, cumulative = -6.18355e-16
Pressure gradient source: uncorrected Ubar = 1, pressure gradient = 0.0549874
smoothSolver:  Solving for epsilon, Initial residual = 0.028009, Final residual = 0.00211058, No Iterations 6
smoothSolver:  Solving for k, Initial residual = 0.0235075, Final residual = 0.00194908, No Iterations 6
ExecutionTime = 0.28 s  ClockTime = 0 s

Time = 48

smoothSolver:  Solving for Ux, Initial residual = 0.00399335, Final residual = 0.000314381, No Iterations 6
smoothSolver:  Solving for Uy, Initial residual = 0.0847187, Final residual = 0.00818228, No Iterations 4
Pressure gradient source: uncorrected Ubar = 0.999979, pressure gradient = 0.0575075
GAMG:  Solving for p, Initial residual = 0.0717257, Final residual = 0.000708111, No Iterations 4
time step continuity errors : sum local = 1.09498e-06, global = 1.13056e-17, cumulative = -6.07049e-16
Pressure gradient source: uncorrected Ubar = 1, pressure gradient = 0.0548474
smoothSolver:  Solving for epsilon, Initial residual = 0.0269739, Final residual = 0.00202346, No Iterations 6
smoothSolver:  Solving for k, Initial residual = 0.0227157, Final residual = 0.00187278, No Iterations 6
ExecutionTime = 0.29 s  ClockTime = 0 s

Time = 49

smoothSolver:  Solving for Ux, Initial residual = 0.00395117, Final residual = 0.000311789, No Iterations 6
smoothSolver:  Solving for Uy, Initial residual = 0.0827252, Final residual = 0.00778478, No Iterations 4
Pressure gradient source: uncorrected Ubar = 0.999981, pressure gradient = 0.0571585
GAMG:  Solving for p, Initial residual = 0.0717027, Final residual = 0.000424296, No Iterations 5
time step continuity errors : sum local = 6.02862e-07, global = 1.66385e-17, cumulative = -5.90411e-16
Pressure gradient source: uncorrected Ubar = 1, pressure gradient = 0.0546943
smoothSolver:  Solving for epsilon, Initial residual = 0.0261478, Final residual = 0.00196244, No Iterations 6
smoothSolver:  Solving for k, Initial residual = 0.021985, Final residual = 0.00182624, No Iterations 6
ExecutionTime = 0.29 s  ClockTime = 0 s

Time = 50

smoothSolver:  Solving for Ux, Initial residual = 0.00391003, Final residual = 0.000309207, No Iterations 6
smoothSolver:  Solving for Uy, Initial residual = 0.083051, Final residual = 0.00709455, No Iterations 4
Pressure gradient source: uncorrected Ubar = 0.999982, pressure gradient = 0.0568218
GAMG:  Solving for p, Initial residual = 0.073724, Final residual = 0.000391472, No Iterations 5
time step continuity errors : sum local = 5.14792e-07, global = 5.29083e-17, cumulative = -5.37503e-16
Pressure gradient source: uncorrected Ubar = 1, pressure gradient = 0.0545302
smoothSolver:  Solving for epsilon, Initial residual = 0.0250035, Final residual = 0.00186675, No Iterations 6
smoothSolver:  Solving for k, Initial residual = 0.0212811, Final residual = 0.001757, No Iterations 6
ExecutionTime = 0.3 s  ClockTime = 0 s

Time = 51

smoothSolver:  Solving for Ux, Initial residual = 0.00387045, Final residual = 0.0003067, No Iterations 6
smoothSolver:  Solving for Uy, Initial residual = 0.0815846, Final residual = 0.00600666, No Iterations 4
Pressure gradient source: uncorrected Ubar = 0.999983, pressure gradient = 0.0565252
GAMG:  Solving for p, Initial residual = 0.0779792, Final residual = 0.000600671, No Iterations 4
time step continuity errors : sum local = 7.22481e-07, global = -6.55868e-18, cumulative = -5.44061e-16
Pressure gradient source: uncorrected Ubar = 1, pressure gradient = 0.0543615
smoothSolver:  Solving for epsilon, Initial residual = 0.0241854, Final residual = 0.00180785, No Iterations 6
smoothSolver:  Solving for k, Initial residual = 0.0207234, Final residual = 0.001717, No Iterations 6
ExecutionTime = 0.31 s  ClockTime = 0 s

Time = 52

smoothSolver:  Solving for Ux, Initial residual = 0.00383258, Final residual = 0.000304395, No Iterations 6
smoothSolver:  Solving for Uy, Initial residual = 0.0760976, Final residual = 0.00544188, No Iterations 4
Pressure gradient source: uncorrected Ubar = 0.999983, pressure gradient = 0.0563756
GAMG:  Solving for p, Initial residual = 0.079342, Final residual = 0.000735032, No Iterations 4
time step continuity errors : sum local = 8.40776e-07, global = 1.35915e-17, cumulative = -5.3047e-16
Pressure gradient source: uncorrected Ubar = 1, pressure gradient = 0.0542086
smoothSolver:  Solving for epsilon, Initial residual = 0.0233645, Final residual = 0.00173118, No Iterations 6
smoothSolver:  Solving for k, Initial residual = 0.0201511, Final residual = 0.00166475, No Iterations 6
ExecutionTime = 0.31 s  ClockTime = 0 s

Time = 53

smoothSolver:  Solving for Ux, Initial residual = 0.00379649, Final residual = 0.00030212, No Iterations 6
smoothSolver:  Solving for Uy, Initial residual = 0.0762011, Final residual = 0.00535273, No Iterations 4
Pressure gradient source: uncorrected Ubar = 0.999985, pressure gradient = 0.0560198
GAMG:  Solving for p, Initial residual = 0.0824811, Final residual = 0.000723161, No Iterations 4
time step continuity errors : sum local = 7.94035e-07, global = -5.8718e-17, cumulative = -5.89188e-16
Pressure gradient source: uncorrected Ubar = 1, pressure gradient = 0.0540408
smoothSolver:  Solving for epsilon, Initial residual = 0.0223974, Final residual = 0.00164937, No Iterations 6
smoothSolver:  Solving for k, Initial residual = 0.0196473, Final residual = 0.00162893, No Iterations 6
ExecutionTime = 0.32 s  ClockTime = 0 s

Time = 54

smoothSolver:  Solving for Ux, Initial residual = 0.00376066, Final residual = 0.000299943, No Iterations 6
smoothSolver:  Solving for Uy, Initial residual = 0.076537, Final residual = 0.00525, No Iterations 4
Pressure gradient source: uncorrected Ubar = 0.999985, pressure gradient = 0.0557559
GAMG:  Solving for p, Initial residual = 0.0818684, Final residual = 0.00059129, No Iterations 4
time step continuity errors : sum local = 6.03027e-07, global = -2.21353e-17, cumulative = -6.11323e-16
Pressure gradient source: uncorrected Ubar = 1, pressure gradient = 0.0538724
smoothSolver:  Solving for epsilon, Initial residual = 0.0216704, Final residual = 0.00159042, No Iterations 6
smoothSolver:  Solving for k, Initial residual = 0.0191398, Final residual = 0.00158592, No Iterations 6
ExecutionTime = 0.32 s  ClockTime = 0 s

Time = 55

smoothSolver:  Solving for Ux, Initial residual = 0.00372536, Final residual = 0.00029765, No Iterations 6
smoothSolver:  Solving for Uy, Initial residual = 0.0758378, Final residual = 0.00546999, No Iterations 4
Pressure gradient source: uncorrected Ubar = 0.999989, pressure gradient = 0.0551923
GAMG:  Solving for p, Initial residual = 0.0826615, Final residual = 0.00072449, No Iterations 4
time step continuity errors : sum local = 6.81213e-07, global = -1.32381e-17, cumulative = -6.24561e-16
Pressure gradient source: uncorrected Ubar = 1, pressure gradient = 0.0536634
smoothSolver:  Solving for epsilon, Initial residual = 0.0206564, Final residual = 0.0014983, No Iterations 6
smoothSolver:  Solving for k, Initial residual = 0.018744, Final residual = 0.00155066, No Iterations 6
ExecutionTime = 0.33 s  ClockTime = 0 s

Time = 56

smoothSolver:  Solving for Ux, Initial residual = 0.00369302, Final residual = 0.000295714, No Iterations 6
smoothSolver:  Solving for Uy, Initial residual = 0.0790293, Final residual = 0.00536349, No Iterations 4
Pressure gradient source: uncorrected Ubar = 0.999986, pressure gradient = 0.0552741
GAMG:  Solving for p, Initial residual = 0.0874218, Final residual = 0.000653624, No Iterations 4
time step continuity errors : sum local = 5.56765e-07, global = 1.40828e-17, cumulative = -6.10479e-16
Pressure gradient source: uncorrected Ubar = 1, pressure gradient = 0.0535037
smoothSolver:  Solving for epsilon, Initial residual = 0.0199615, Final residual = 0.00144517, No Iterations 6
smoothSolver:  Solving for k, Initial residual = 0.0183355, Final residual = 0.00151737, No Iterations 6
ExecutionTime = 0.33 s  ClockTime = 0 s

Time = 57

smoothSolver:  Solving for Ux, Initial residual = 0.00366299, Final residual = 0.000293919, No Iterations 6
smoothSolver:  Solving for Uy, Initial residual = 0.072086, Final residual = 0.00482343, No Iterations 4
Pressure gradient source: uncorrected Ubar = 0.999987, pressure gradient = 0.055009
GAMG:  Solving for p, Initial residual = 0.0866374, Final residual = 0.000628769, No Iterations 4
time step continuity errors : sum local = 4.9815e-07, global = 3.55555e-17, cumulative = -5.74923e-16
Pressure gradient source: uncorrected Ubar = 1, pressure gradient = 0.0533404
smoothSolver:  Solving for epsilon, Initial residual = 0.0191305, Final residual = 0.00137475, No Iterations 6
smoothSolver:  Solving for k, Initial residual = 0.0179799, Final residual = 0.00149179, No Iterations 6
ExecutionTime = 0.34 s  ClockTime = 0 s

Time = 58

smoothSolver:  Solving for Ux, Initial residual = 0.00363223, Final residual = 0.000292035, No Iterations 6
smoothSolver:  Solving for Uy, Initial residual = 0.0768496, Final residual = 0.00567114, No Iterations 4
Pressure gradient source: uncorrected Ubar = 0.99999, pressure gradient = 0.0544601
GAMG:  Solving for p, Initial residual = 0.0930181, Final residual = 0.000537163, No Iterations 4
time step continuity errors : sum local = 3.97252e-07, global = 2.8686e-17, cumulative = -5.46237e-16
Pressure gradient source: uncorrected Ubar = 1, pressure gradient = 0.0531372
smoothSolver:  Solving for epsilon, Initial residual = 0.0183406, Final residual = 0.00130788, No Iterations 6
smoothSolver:  Solving for k, Initial residual = 0.0176324, Final residual = 0.0014539, No Iterations 6
ExecutionTime = 0.34 s  ClockTime = 0 s

Time = 59

smoothSolver:  Solving for Ux, Initial residual = 0.00360248, Final residual = 0.000290138, No Iterations 6
smoothSolver:  Solving for Uy, Initial residual = 0.0764294, Final residual = 0.00510784, No Iterations 4
Pressure gradient source: uncorrected Ubar = 0.999992, pressure gradient = 0.0541127
GAMG:  Solving for p, Initial residual = 0.0986214, Final residual = 0.000786713, No Iterations 4
time step continuity errors : sum local = 5.69162e-07, global = 6.63214e-18, cumulative = -5.39605e-16
Pressure gradient source: uncorrected Ubar = 1, pressure gradient = 0.0529249
smoothSolver:  Solving for epsilon, Initial residual = 0.0175513, Final residual = 0.00123772, No Iterations 6
smoothSolver:  Solving for k, Initial residual = 0.017313, Final residual = 0.00143319, No Iterations 6
ExecutionTime = 0.35 s  ClockTime = 0 s

Time = 60

smoothSolver:  Solving for Ux, Initial residual = 0.00357497, Final residual = 0.000288443, No Iterations 6
smoothSolver:  Solving for Uy, Initial residual = 0.0721885, Final residual = 0.00471434, No Iterations 4
Pressure gradient source: uncorrected Ubar = 0.999991, pressure gradient = 0.0539257
GAMG:  Solving for p, Initial residual = 0.0951568, Final residual = 0.000863728, No Iterations 4
time step continuity errors : sum local = 5.90506e-07, global = -2.07532e-17, cumulative = -5.60358e-16
Pressure gradient source: uncorrected Ubar = 1, pressure gradient = 0.0527256
smoothSolver:  Solving for epsilon, Initial residual = 0.0170043, Final residual = 0.0011922, No Iterations 6
smoothSolver:  Solving for k, Initial residual = 0.0170316, Final residual = 0.0014104, No Iterations 6
ExecutionTime = 0.35 s  ClockTime = 0 s

Time = 61

smoothSolver:  Solving for Ux, Initial residual = 0.00354673, Final residual = 0.000286727, No Iterations 6
smoothSolver:  Solving for Uy, Initial residual = 0.0795517, Final residual = 0.00490769, No Iterations 4
Pressure gradient source: uncorrected Ubar = 0.999993, pressure gradient = 0.0535217
GAMG:  Solving for p, Initial residual = 0.115598, Final residual = 0.000813181, No Iterations 4
time step continuity errors : sum local = 5.01308e-07, global = -8.61172e-18, cumulative = -5.6897e-16
Pressure gradient source: uncorrected Ubar = 1, pressure gradient = 0.0525082
smoothSolver:  Solving for epsilon, Initial residual = 0.0162706, Final residual = 0.00112933, No Iterations 6
smoothSolver:  Solving for k, Initial residual = 0.0167697, Final residual = 0.00138688, No Iterations 6
ExecutionTime = 0.36 s  ClockTime = 0 s

Time = 62

smoothSolver:  Solving for Ux, Initial residual = 0.00352097, Final residual = 0.000285108, No Iterations 6
smoothSolver:  Solving for Uy, Initial residual = 0.077349, Final residual = 0.0074099, No Iterations 3
Pressure gradient source: uncorrected Ubar = 0.999994, pressure gradient = 0.053247
GAMG:  Solving for p, Initial residual = 0.100042, Final residual = 0.000543758, No Iterations 4
time step continuity errors : sum local = 3.21804e-07, global = -3.77866e-17, cumulative = -6.06756e-16
Pressure gradient source: uncorrected Ubar = 1, pressure gradient = 0.0522918
smoothSolver:  Solving for epsilon, Initial residual = 0.0157469, Final residual = 0.00108577, No Iterations 6
smoothSolver:  Solving for k, Initial residual = 0.0165411, Final residual = 0.00137224, No Iterations 6
ExecutionTime = 0.36 s  ClockTime = 0 s

Time = 63

smoothSolver:  Solving for Ux, Initial residual = 0.00349469, Final residual = 0.000283554, No Iterations 6
smoothSolver:  Solving for Uy, Initial residual = 0.0718608, Final residual = 0.00458528, No Iterations 4
Pressure gradient source: uncorrected Ubar = 0.999995, pressure gradient = 0.0528544
GAMG:  Solving for p, Initial residual = 0.106517, Final residual = 0.000855459, No Iterations 4
time step continuity errors : sum local = 4.82038e-07, global = -1.132e-17, cumulative = -6.18076e-16
Pressure gradient source: uncorrected Ubar = 1, pressure gradient = 0.0520608
smoothSolver:  Solving for epsilon, Initial residual = 0.0152056, Final residual = 0.00104618, No Iterations 6
smoothSolver:  Solving for k, Initial residual = 0.0163304, Final residual = 0.00135349, No Iterations 6
ExecutionTime = 0.37 s  ClockTime = 0 s

Time = 64

smoothSolver:  Solving for Ux, Initial residual = 0.00347038, Final residual = 0.000282049, No Iterations 6
smoothSolver:  Solving for Uy, Initial residual = 0.0733986, Final residual = 0.00448846, No Iterations 4
Pressure gradient source: uncorrected Ubar = 0.999996, pressure gradient = 0.0524832
GAMG:  Solving for p, Initial residual = 0.11192, Final residual = 0.000564694, No Iterations 4
time step continuity errors : sum local = 3.1976e-07, global = -4.15737e-17, cumulative = -6.5965e-16
Pressure gradient source: uncorrected Ubar = 1, pressure gradient = 0.0518194
smoothSolver:  Solving for epsilon, Initial residual = 0.0146201, Final residual = 0.000995778, No Iterations 6
smoothSolver:  Solving for k, Initial residual = 0.0161415, Final residual = 0.00133475, No Iterations 6
ExecutionTime = 0.37 s  ClockTime = 0 s

Time = 65

smoothSolver:  Solving for Ux, Initial residual = 0.00344774, Final residual = 0.000280719, No Iterations 6
smoothSolver:  Solving for Uy, Initial residual = 0.0730873, Final residual = 0.00480565, No Iterations 4
Pressure gradient source: uncorrected Ubar = 0.999996, pressure gradient = 0.0522593
GAMG:  Solving for p, Initial residual = 0.109322, Final residual = 0.000871955, No Iterations 4
time step continuity errors : sum local = 4.75714e-07, global = 3.59524e-17, cumulative = -6.23698e-16
Pressure gradient source: uncorrected Ubar = 1, pressure gradient = 0.0515881
smoothSolver:  Solving for epsilon, Initial residual = 0.0140369, Final residual = 0.000949598, No Iterations 6
smoothSolver:  Solving for k, Initial residual = 0.015985, Final residual = 0.00132541, No Iterations 6
ExecutionTime = 0.38 s  ClockTime = 0 s

Time = 66

smoothSolver:  Solving for Ux, Initial residual = 0.00342494, Final residual = 0.000279397, No Iterations 6
smoothSolver:  Solving for Uy, Initial residual = 0.0825068, Final residual = 0.00535675, No Iterations 4
Pressure gradient source: uncorrected Ubar = 0.999997, pressure gradient = 0.0519095
GAMG:  Solving for p, Initial residual = 0.134824, Final residual = 0.00113837, No Iterations 4
time step continuity errors : sum local = 5.97382e-07, global = -1.50381e-17, cumulative = -6.38736e-16
Pressure gradient source: uncorrected Ubar = 1, pressure gradient = 0.0513487
smoothSolver:  Solving for epsilon, Initial residual = 0.0135253, Final residual = 0.000910478, No Iterations 6
smoothSolver:  Solving for k, Initial residual = 0.0158284, Final residual = 0.00130544, No Iterations 6
ExecutionTime = 0.38 s  ClockTime = 0 s

Time = 67

smoothSolver:  Solving for Ux, Initial residual = 0.00340386, Final residual = 0.000278141, No Iterations 6
smoothSolver:  Solving for Uy, Initial residual = 0.0889127, Final residual = 0.00556078, No Iterations 4
Pressure gradient source: uncorrected Ubar = 0.999998, pressure gradient = 0.051544
GAMG:  Solving for p, Initial residual = 0.135468, Final residual = 0.00106778, No Iterations 4
time step continuity errors : sum local = 5.27362e-07, global = 4.39067e-17, cumulative = -5.94829e-16
Pressure gradient source: uncorrected Ubar = 1, pressure gradient = 0.0511
smoothSolver:  Solving for epsilon, Initial residual = 0.013092, Final residual = 0.000878405, No Iterations 6
smoothSolver:  Solving for k, Initial residual = 0.015706, Final residual = 0.00130322, No Iterations 6
ExecutionTime = 0.38 s  ClockTime = 0 s

Time = 68

smoothSolver:  Solving for Ux, Initial residual = 0.00338449, Final residual = 0.000276989, No Iterations 6
smoothSolver:  Solving for Uy, Initial residual = 0.0914529, Final residual = 0.00818427, No Iterations 3
Pressure gradient source: uncorrected Ubar = 0.999999, pressure gradient = 0.0512503
GAMG:  Solving for p, Initial residual = 0.125562, Final residual = 0.000876076, No Iterations 4
time step continuity errors : sum local = 4.07759e-07, global = -2.2134e-17, cumulative = -6.16963e-16
Pressure gradient source: uncorrected Ubar = 1, pressure gradient = 0.0508525
smoothSolver:  Solving for epsilon, Initial residual = 0.0126876, Final residual = 0.000850414, No Iterations 6
smoothSolver:  Solving for k, Initial residual = 0.0155572, Final residual = 0.00127458, No Iterations 6
ExecutionTime = 0.39 s  ClockTime = 0 s

Time = 69

smoothSolver:  Solving for Ux, Initial residual = 0.00336523, Final residual = 0.000275811, No Iterations 6
smoothSolver:  Solving for Uy, Initial residual = 0.0901555, Final residual = 0.00836978, No Iterations 3
Pressure gradient source: uncorrected Ubar = 1, pressure gradient = 0.0508465
GAMG:  Solving for p, Initial residual = 0.123043, Final residual = 0.00115718, No Iterations 4
time step continuity errors : sum local = 5.44187e-07, global = 3.10443e-17, cumulative = -5.85919e-16
Pressure gradient source: uncorrected Ubar = 1, pressure gradient = 0.0505911
smoothSolver:  Solving for epsilon, Initial residual = 0.0122291, Final residual = 0.000812552, No Iterations 6
smoothSolver:  Solving for k, Initial residual = 0.0154726, Final residual = 0.00129352, No Iterations 6
ExecutionTime = 0.39 s  ClockTime = 0 s

Time = 70

smoothSolver:  Solving for Ux, Initial residual = 0.00334617, Final residual = 0.000274671, No Iterations 6
smoothSolver:  Solving for Uy, Initial residual = 0.097041, Final residual = 0.00928056, No Iterations 3
Pressure gradient source: uncorrected Ubar = 1, pressure gradient = 0.0505112
GAMG:  Solving for p, Initial residual = 0.13467, Final residual = 0.000846306, No Iterations 4
time step continuity errors : sum local = 3.99634e-07, global = -2.57124e-17, cumulative = -6.11631e-16
Pressure gradient source: uncorrected Ubar = 1, pressure gradient = 0.0503259
smoothSolver:  Solving for epsilon, Initial residual = 0.0118484, Final residual = 0.000789266, No Iterations 6
smoothSolver:  Solving for k, Initial residual = 0.0153665, Final residual = 0.00125543, No Iterations 6
ExecutionTime = 0.4 s  ClockTime = 0 s

Time = 71

smoothSolver:  Solving for Ux, Initial residual = 0.0033305, Final residual = 0.000273762, No Iterations 6
smoothSolver:  Solving for Uy, Initial residual = 0.0901396, Final residual = 0.00842218, No Iterations 3
Pressure gradient source: uncorrected Ubar = 1, pressure gradient = 0.0502943
GAMG:  Solving for p, Initial residual = 0.11901, Final residual = 0.00105547, No Iterations 4
time step continuity errors : sum local = 4.79884e-07, global = -1.42434e-17, cumulative = -6.25875e-16
Pressure gradient source: uncorrected Ubar = 1, pressure gradient = 0.0500729
smoothSolver:  Solving for epsilon, Initial residual = 0.0114274, Final residual = 0.000758813, No Iterations 6
smoothSolver:  Solving for k, Initial residual = 0.0152841, Final residual = 0.00127456, No Iterations 6
ExecutionTime = 0.41 s  ClockTime = 0 s

Time = 72

smoothSolver:  Solving for Ux, Initial residual = 0.00331359, Final residual = 0.000272713, No Iterations 6
smoothSolver:  Solving for Uy, Initial residual = 0.082106, Final residual = 0.00511266, No Iterations 4
Pressure gradient source: uncorrected Ubar = 1, pressure gradient = 0.0497878
GAMG:  Solving for p, Initial residual = 0.115053, Final residual = 0.00086295, No Iterations 4
time step continuity errors : sum local = 3.80859e-07, global = -1.40397e-17, cumulative = -6.39914e-16
Pressure gradient source: uncorrected Ubar = 1, pressure gradient = 0.0497922
smoothSolver:  Solving for epsilon, Initial residual = 0.0111191, Final residual = 0.000736001, No Iterations 6
smoothSolver:  Solving for k, Initial residual = 0.015214, Final residual = 0.00124418, No Iterations 6
ExecutionTime = 0.42 s  ClockTime = 0 s

Time = 73

smoothSolver:  Solving for Ux, Initial residual = 0.00329797, Final residual = 0.000271702, No Iterations 6
smoothSolver:  Solving for Uy, Initial residual = 0.0859001, Final residual = 0.00510282, No Iterations 4
Pressure gradient source: uncorrected Ubar = 1, pressure gradient = 0.0494062
GAMG:  Solving for p, Initial residual = 0.139725, Final residual = 0.000939928, No Iterations 4
time step continuity errors : sum local = 3.99691e-07, global = 1.86338e-17, cumulative = -6.2128e-16
Pressure gradient source: uncorrected Ubar = 1, pressure gradient = 0.0495033
smoothSolver:  Solving for epsilon, Initial residual = 0.0107012, Final residual = 0.000705289, No Iterations 6
smoothSolver:  Solving for k, Initial residual = 0.0151647, Final residual = 0.00125283, No Iterations 6
ExecutionTime = 0.42 s  ClockTime = 0 s

Time = 74

smoothSolver:  Solving for Ux, Initial residual = 0.00328276, Final residual = 0.000270739, No Iterations 6
smoothSolver:  Solving for Uy, Initial residual = 0.0925372, Final residual = 0.00872795, No Iterations 3
Pressure gradient source: uncorrected Ubar = 1, pressure gradient = 0.0490533
GAMG:  Solving for p, Initial residual = 0.130799, Final residual = 0.00120964, No Iterations 4
time step continuity errors : sum local = 5.02047e-07, global = 2.70373e-17, cumulative = -5.94243e-16
Pressure gradient source: uncorrected Ubar = 1, pressure gradient = 0.0492112
smoothSolver:  Solving for epsilon, Initial residual = 0.0104582, Final residual = 0.000689022, No Iterations 6
smoothSolver:  Solving for k, Initial residual = 0.0150995, Final residual = 0.00123371, No Iterations 6
ExecutionTime = 0.42 s  ClockTime = 0 s

Time = 75

smoothSolver:  Solving for Ux, Initial residual = 0.00326853, Final residual = 0.000269904, No Iterations 6
smoothSolver:  Solving for Uy, Initial residual = 0.093466, Final residual = 0.0058186, No Iterations 4
Pressure gradient source: uncorrected Ubar = 1, pressure gradient = 0.048807
GAMG:  Solving for p, Initial residual = 0.143334, Final residual = 0.0010874, No Iterations 5
time step continuity errors : sum local = 4.49511e-07, global = 1.67553e-17, cumulative = -5.77488e-16
Pressure gradient source: uncorrected Ubar = 1, pressure gradient = 0.0489299
smoothSolver:  Solving for epsilon, Initial residual = 0.0101093, Final residual = 0.000661787, No Iterations 6
smoothSolver:  Solving for k, Initial residual = 0.0150562, Final residual = 0.00124235, No Iterations 6
ExecutionTime = 0.43 s  ClockTime = 0 s

Time = 76

smoothSolver:  Solving for Ux, Initial residual = 0.00325522, Final residual = 0.000269029, No Iterations 6
smoothSolver:  Solving for Uy, Initial residual = 0.101889, Final residual = 0.00907968, No Iterations 3
Pressure gradient source: uncorrected Ubar = 1.00001, pressure gradient = 0.0483336
GAMG:  Solving for p, Initial residual = 0.157643, Final residual = 0.00106315, No Iterations 4
time step continuity errors : sum local = 4.18192e-07, global = -7.50798e-18, cumulative = -5.84996e-16
Pressure gradient source: uncorrected Ubar = 1, pressure gradient = 0.0486281
smoothSolver:  Solving for epsilon, Initial residual = 0.00983969, Final residual = 0.000645606, No Iterations 6
smoothSolver:  Solving for k, Initial residual = 0.0149982, Final residual = 0.00122011, No Iterations 6
ExecutionTime = 0.43 s  ClockTime = 0 s

Time = 77

smoothSolver:  Solving for Ux, Initial residual = 0.00324125, Final residual = 0.000268144, No Iterations 6
smoothSolver:  Solving for Uy, Initial residual = 0.101356, Final residual = 0.00622332, No Iterations 4
Pressure gradient source: uncorrected Ubar = 1.00001, pressure gradient = 0.0479804
GAMG:  Solving for p, Initial residual = 0.164572, Final residual = 0.00144982, No Iterations 4
time step continuity errors : sum local = 5.34441e-07, global = 2.06979e-17, cumulative = -5.64298e-16
Pressure gradient source: uncorrected Ubar = 1, pressure gradient = 0.0483241
smoothSolver:  Solving for epsilon, Initial residual = 0.00967657, Final residual = 0.000635801, No Iterations 6
smoothSolver:  Solving for k, Initial residual = 0.0150346, Final residual = 0.00122592, No Iterations 6
ExecutionTime = 0.44 s  ClockTime = 0 s

Time = 78

smoothSolver:  Solving for Ux, Initial residual = 0.00322967, Final residual = 0.000267407, No Iterations 6
smoothSolver:  Solving for Uy, Initial residual = 0.0939923, Final residual = 0.00811021, No Iterations 3
Pressure gradient source: uncorrected Ubar = 1.00001, pressure gradient = 0.0476945
GAMG:  Solving for p, Initial residual = 0.152728, Final residual = 0.00116195, No Iterations 4
time step continuity errors : sum local = 4.03413e-07, global = -2.23613e-17, cumulative = -5.86659e-16
Pressure gradient source: uncorrected Ubar = 1, pressure gradient = 0.0480261
smoothSolver:  Solving for epsilon, Initial residual = 0.00932704, Final residual = 0.000603879, No Iterations 6
smoothSolver:  Solving for k, Initial residual = 0.0150095, Final residual = 0.00122803, No Iterations 6
ExecutionTime = 0.44 s  ClockTime = 0 s

Time = 79

smoothSolver:  Solving for Ux, Initial residual = 0.0032176, Final residual = 0.000266719, No Iterations 6
smoothSolver:  Solving for Uy, Initial residual = 0.09068, Final residual = 0.00906557, No Iterations 3
Pressure gradient source: uncorrected Ubar = 1.00001, pressure gradient = 0.0473351
GAMG:  Solving for p, Initial residual = 0.143963, Final residual = 0.00125059, No Iterations 4
time step continuity errors : sum local = 4.37738e-07, global = -3.80448e-17, cumulative = -6.24704e-16
Pressure gradient source: uncorrected Ubar = 1, pressure gradient = 0.0477241
smoothSolver:  Solving for epsilon, Initial residual = 0.00929703, Final residual = 0.000602093, No Iterations 6
smoothSolver:  Solving for k, Initial residual = 0.0150364, Final residual = 0.00121346, No Iterations 6
ExecutionTime = 0.45 s  ClockTime = 0 s

Time = 80

smoothSolver:  Solving for Ux, Initial residual = 0.00320631, Final residual = 0.000265997, No Iterations 6
smoothSolver:  Solving for Uy, Initial residual = 0.0969307, Final residual = 0.00829186, No Iterations 3
Pressure gradient source: uncorrected Ubar = 1.00001, pressure gradient = 0.0469393
GAMG:  Solving for p, Initial residual = 0.154014, Final residual = 0.0014894, No Iterations 4
time step continuity errors : sum local = 5.3893e-07, global = 1.29483e-17, cumulative = -6.11756e-16
Pressure gradient source: uncorrected Ubar = 1, pressure gradient = 0.0474134
smoothSolver:  Solving for epsilon, Initial residual = 0.00902236, Final residual = 0.000579841, No Iterations 6
smoothSolver:  Solving for k, Initial residual = 0.015014, Final residual = 0.00121355, No Iterations 6
ExecutionTime = 0.45 s  ClockTime = 0 s

Time = 81

smoothSolver:  Solving for Ux, Initial residual = 0.00319622, Final residual = 0.000265355, No Iterations 6
smoothSolver:  Solving for Uy, Initial residual = 0.101629, Final residual = 0.00871644, No Iterations 3
Pressure gradient source: uncorrected Ubar = 1.00001, pressure gradient = 0.0466053
GAMG:  Solving for p, Initial residual = 0.15208, Final residual = 0.000540954, No Iterations 6
time step continuity errors : sum local = 2.1271e-07, global = 2.29943e-18, cumulative = -6.09456e-16
Pressure gradient source: uncorrected Ubar = 1, pressure gradient = 0.0471032
smoothSolver:  Solving for epsilon, Initial residual = 0.00886593, Final residual = 0.000882203, No Iterations 5
smoothSolver:  Solving for k, Initial residual = 0.0150316, Final residual = 0.00120678, No Iterations 6
ExecutionTime = 0.46 s  ClockTime = 0 s

Time = 82

smoothSolver:  Solving for Ux, Initial residual = 0.00318471, Final residual = 0.000264581, No Iterations 6
smoothSolver:  Solving for Uy, Initial residual = 0.0919884, Final residual = 0.00879743, No Iterations 3
Pressure gradient source: uncorrected Ubar = 1.00001, pressure gradient = 0.0459926
GAMG:  Solving for p, Initial residual = 0.152284, Final residual = 0.00148936, No Iterations 4
time step continuity errors : sum local = 5.19715e-07, global = 3.2674e-17, cumulative = -5.76782e-16
Pressure gradient source: uncorrected Ubar = 1, pressure gradient = 0.046757
smoothSolver:  Solving for epsilon, Initial residual = 0.00868713, Final residual = 0.000863129, No Iterations 5
smoothSolver:  Solving for k, Initial residual = 0.0150816, Final residual = 0.00121403, No Iterations 6
ExecutionTime = 0.46 s  ClockTime = 0 s

Time = 83

smoothSolver:  Solving for Ux, Initial residual = 0.00317387, Final residual = 0.000263852, No Iterations 6
smoothSolver:  Solving for Uy, Initial residual = 0.0968783, Final residual = 0.00904482, No Iterations 3
Pressure gradient source: uncorrected Ubar = 1.00001, pressure gradient = 0.0456718
GAMG:  Solving for p, Initial residual = 0.151657, Final residual = 0.00147667, No Iterations 4
time step continuity errors : sum local = 5.22738e-07, global = -2.98702e-17, cumulative = -6.06653e-16
Pressure gradient source: uncorrected Ubar = 1, pressure gradient = 0.0464173
smoothSolver:  Solving for epsilon, Initial residual = 0.00852496, Final residual = 0.000837397, No Iterations 5
smoothSolver:  Solving for k, Initial residual = 0.0151382, Final residual = 0.00121179, No Iterations 6
ExecutionTime = 0.47 s  ClockTime = 0 s

Time = 84

smoothSolver:  Solving for Ux, Initial residual = 0.00316515, Final residual = 0.000263238, No Iterations 6
smoothSolver:  Solving for Uy, Initial residual = 0.102641, Final residual = 0.0092946, No Iterations 3
Pressure gradient source: uncorrected Ubar = 1.00001, pressure gradient = 0.0453584
GAMG:  Solving for p, Initial residual = 0.14642, Final residual = 0.00128119, No Iterations 4
time step continuity errors : sum local = 4.70132e-07, global = 1.9093e-17, cumulative = -5.8756e-16
Pressure gradient source: uncorrected Ubar = 1, pressure gradient = 0.0460842
smoothSolver:  Solving for epsilon, Initial residual = 0.00839642, Final residual = 0.000823832, No Iterations 5
smoothSolver:  Solving for k, Initial residual = 0.0151966, Final residual = 0.0012136, No Iterations 6
ExecutionTime = 0.47 s  ClockTime = 0 s

Time = 85

smoothSolver:  Solving for Ux, Initial residual = 0.0031557, Final residual = 0.000262638, No Iterations 6
smoothSolver:  Solving for Uy, Initial residual = 0.0940048, Final residual = 0.00707783, No Iterations 4
Pressure gradient source: uncorrected Ubar = 1.00001, pressure gradient = 0.0449848
GAMG:  Solving for p, Initial residual = 0.14229, Final residual = 0.00113067, No Iterations 5
time step continuity errors : sum local = 4.06159e-07, global = -1.25259e-18, cumulative = -5.88812e-16
Pressure gradient source: uncorrected Ubar = 1, pressure gradient = 0.0457488
smoothSolver:  Solving for epsilon, Initial residual = 0.0083158, Final residual = 0.000817094, No Iterations 5
smoothSolver:  Solving for k, Initial residual = 0.0152311, Final residual = 0.00123257, No Iterations 6
ExecutionTime = 0.48 s  ClockTime = 0 s

Time = 86

smoothSolver:  Solving for Ux, Initial residual = 0.00314707, Final residual = 0.000262031, No Iterations 6
smoothSolver:  Solving for Uy, Initial residual = 0.0954098, Final residual = 0.00648361, No Iterations 4
Pressure gradient source: uncorrected Ubar = 1.00001, pressure gradient = 0.0445966
GAMG:  Solving for p, Initial residual = 0.152683, Final residual = 0.00109997, No Iterations 4
time step continuity errors : sum local = 3.6809e-07, global = -1.79929e-17, cumulative = -6.06805e-16
Pressure gradient source: uncorrected Ubar = 1, pressure gradient = 0.0454092
smoothSolver:  Solving for epsilon, Initial residual = 0.00823729, Final residual = 0.000807329, No Iterations 5
smoothSolver:  Solving for k, Initial residual = 0.0152844, Final residual = 0.00121852, No Iterations 6
ExecutionTime = 0.48 s  ClockTime = 0 s

Time = 87

smoothSolver:  Solving for Ux, Initial residual = 0.00313881, Final residual = 0.000261435, No Iterations 6
smoothSolver:  Solving for Uy, Initial residual = 0.097644, Final residual = 0.00879023, No Iterations 3
Pressure gradient source: uncorrected Ubar = 1.00001, pressure gradient = 0.044215
GAMG:  Solving for p, Initial residual = 0.154831, Final residual = 0.00147198, No Iterations 4
time step continuity errors : sum local = 4.8275e-07, global = -4.2689e-17, cumulative = -6.49494e-16
Pressure gradient source: uncorrected Ubar = 1, pressure gradient = 0.0450667
smoothSolver:  Solving for epsilon, Initial residual = 0.00801457, Final residual = 0.000776928, No Iterations 5
smoothSolver:  Solving for k, Initial residual = 0.0153541, Final residual = 0.00122331, No Iterations 6
ExecutionTime = 0.49 s  ClockTime = 0 s

Time = 88

smoothSolver:  Solving for Ux, Initial residual = 0.00313159, Final residual = 0.000260951, No Iterations 6
smoothSolver:  Solving for Uy, Initial residual = 0.0951096, Final residual = 0.00858044, No Iterations 3
Pressure gradient source: uncorrected Ubar = 1.00001, pressure gradient = 0.043946
GAMG:  Solving for p, Initial residual = 0.167635, Final residual = 0.00127366, No Iterations 4
time step continuity errors : sum local = 4.19453e-07, global = -4.5997e-17, cumulative = -6.95491e-16
Pressure gradient source: uncorrected Ubar = 1, pressure gradient = 0.0447361
smoothSolver:  Solving for epsilon, Initial residual = 0.00790756, Final residual = 0.000766917, No Iterations 5
smoothSolver:  Solving for k, Initial residual = 0.0154212, Final residual = 0.00122367, No Iterations 6
ExecutionTime = 0.49 s  ClockTime = 0 s

Time = 89

smoothSolver:  Solving for Ux, Initial residual = 0.00312398, Final residual = 0.000260438, No Iterations 6
smoothSolver:  Solving for Uy, Initial residual = 0.101304, Final residual = 0.00989133, No Iterations 3
Pressure gradient source: uncorrected Ubar = 1.00001, pressure gradient = 0.0435376
GAMG:  Solving for p, Initial residual = 0.170759, Final residual = 0.00159194, No Iterations 4
time step continuity errors : sum local = 5.073e-07, global = -2.08926e-17, cumulative = -7.16384e-16
Pressure gradient source: uncorrected Ubar = 1, pressure gradient = 0.0443979
smoothSolver:  Solving for epsilon, Initial residual = 0.00780262, Final residual = 0.0007535, No Iterations 5
smoothSolver:  Solving for k, Initial residual = 0.0154763, Final residual = 0.0012323, No Iterations 6
ExecutionTime = 0.49 s  ClockTime = 0 s

Time = 90

smoothSolver:  Solving for Ux, Initial residual = 0.00311709, Final residual = 0.000259935, No Iterations 6
smoothSolver:  Solving for Uy, Initial residual = 0.100308, Final residual = 0.00996605, No Iterations 3
Pressure gradient source: uncorrected Ubar = 1.00001, pressure gradient = 0.0431811
GAMG:  Solving for p, Initial residual = 0.17904, Final residual = 0.00153347, No Iterations 4
time step continuity errors : sum local = 4.63481e-07, global = 4.0514e-17, cumulative = -6.7587e-16
Pressure gradient source: uncorrected Ubar = 1, pressure gradient = 0.0440595
smoothSolver:  Solving for epsilon, Initial residual = 0.00766553, Final residual = 0.000731575, No Iterations 5
smoothSolver:  Solving for k, Initial residual = 0.015522, Final residual = 0.00123166, No Iterations 6
ExecutionTime = 0.5 s  ClockTime = 0 s

Time = 91

smoothSolver:  Solving for Ux, Initial residual = 0.00311062, Final residual = 0.000259375, No Iterations 6
smoothSolver:  Solving for Uy, Initial residual = 0.103418, Final residual = 0.00822133, No Iterations 3
Pressure gradient source: uncorrected Ubar = 1.00001, pressure gradient = 0.042753
GAMG:  Solving for p, Initial residual = 0.173357, Final residual = 0.00120888, No Iterations 4
time step continuity errors : sum local = 3.64244e-07, global = -2.72753e-17, cumulative = -7.03145e-16
Pressure gradient source: uncorrected Ubar = 1, pressure gradient = 0.0437116
smoothSolver:  Solving for epsilon, Initial residual = 0.00764707, Final residual = 0.000740549, No Iterations 5
smoothSolver:  Solving for k, Initial residual = 0.0155907, Final residual = 0.00123947, No Iterations 6
ExecutionTime = 0.5 s  ClockTime = 0 s

Time = 92

smoothSolver:  Solving for Ux, Initial residual = 0.00310402, Final residual = 0.000258859, No Iterations 6
smoothSolver:  Solving for Uy, Initial residual = 0.0920148, Final residual = 0.00801049, No Iterations 3
Pressure gradient source: uncorrected Ubar = 1.00001, pressure gradient = 0.0424355
GAMG:  Solving for p, Initial residual = 0.178148, Final residual = 0.00121125, No Iterations 4
time step continuity errors : sum local = 3.67584e-07, global = -5.95477e-19, cumulative = -7.0374e-16
Pressure gradient source: uncorrected Ubar = 1, pressure gradient = 0.0433694
smoothSolver:  Solving for epsilon, Initial residual = 0.00746541, Final residual = 0.000707281, No Iterations 5
smoothSolver:  Solving for k, Initial residual = 0.0156629, Final residual = 0.00124334, No Iterations 6
ExecutionTime = 0.51 s  ClockTime = 0 s

Time = 93

smoothSolver:  Solving for Ux, Initial residual = 0.00309731, Final residual = 0.000258304, No Iterations 6
smoothSolver:  Solving for Uy, Initial residual = 0.110116, Final residual = 0.00926026, No Iterations 3
Pressure gradient source: uncorrected Ubar = 1.00001, pressure gradient = 0.0420341
[...]
ExecutionTime = 10.04 s  ClockTime = 11 s

Time = 2086

smoothSolver:  Solving for Ux, Initial residual = 6.10022e-07, Final residual = 6.10022e-07, No Iterations 0
smoothSolver:  Solving for Uy, Initial residual = 0.00134499, Final residual = 0.000105352, No Iterations 5
Pressure gradient source: uncorrected Ubar = 1, pressure gradient = 0.00253515
GAMG:  Solving for p, Initial residual = 0.000156513, Final residual = 1.45214e-06, No Iterations 14
time step continuity errors : sum local = 9.70912e-12, global = 2.46082e-17, cumulative = 1.55193e-14
Pressure gradient source: uncorrected Ubar = 1, pressure gradient = 0.00253515
smoothSolver:  Solving for epsilon, Initial residual = 6.4496e-06, Final residual = 6.4496e-06, No Iterations 0
smoothSolver:  Solving for k, Initial residual = 9.74914e-06, Final residual = 9.74914e-06, No Iterations 0
ExecutionTime = 10.04 s  ClockTime = 11 s

Time = 2087

smoothSolver:  Solving for Ux, Initial residual = 6.09118e-07, Final residual = 6.09118e-07, No Iterations 0
smoothSolver:  Solving for Uy, Initial residual = 0.00132468, Final residual = 0.000103954, No Iterations 5
Pressure gradient source: uncorrected Ubar = 1, pressure gradient = 0.00253515
GAMG:  Solving for p, Initial residual = 0.000153871, Final residual = 1.45064e-06, No Iterations 14
time step continuity errors : sum local = 9.70071e-12, global = -1.82101e-17, cumulative = 1.55011e-14
Pressure gradient source: uncorrected Ubar = 1, pressure gradient = 0.00253515
smoothSolver:  Solving for epsilon, Initial residual = 6.45403e-06, Final residual = 6.45403e-06, No Iterations 0
smoothSolver:  Solving for k, Initial residual = 9.75499e-06, Final residual = 9.75499e-06, No Iterations 0
ExecutionTime = 10.05 s  ClockTime = 11 s

Time = 2088

smoothSolver:  Solving for Ux, Initial residual = 6.08216e-07, Final residual = 6.08216e-07, No Iterations 0
smoothSolver:  Solving for Uy, Initial residual = 0.00130505, Final residual = 0.000102578, No Iterations 5
Pressure gradient source: uncorrected Ubar = 1, pressure gradient = 0.00253515
GAMG:  Solving for p, Initial residual = 0.000151273, Final residual = 1.44828e-06, No Iterations 14
time step continuity errors : sum local = 9.68618e-12, global = 1.28421e-17, cumulative = 1.55139e-14
Pressure gradient source: uncorrected Ubar = 1, pressure gradient = 0.00253515
smoothSolver:  Solving for epsilon, Initial residual = 6.45846e-06, Final residual = 6.45846e-06, No Iterations 0
smoothSolver:  Solving for k, Initial residual = 9.76083e-06, Final residual = 9.76083e-06, No Iterations 0
ExecutionTime = 10.05 s  ClockTime = 11 s

Time = 2089

smoothSolver:  Solving for Ux, Initial residual = 6.07316e-07, Final residual = 6.07316e-07, No Iterations 0
smoothSolver:  Solving for Uy, Initial residual = 0.00128604, Final residual = 0.00010125, No Iterations 5
Pressure gradient source: uncorrected Ubar = 1, pressure gradient = 0.00253515
GAMG:  Solving for p, Initial residual = 0.000148749, Final residual = 1.44465e-06, No Iterations 14
time step continuity errors : sum local = 9.66279e-12, global = 2.32693e-17, cumulative = 1.55372e-14
Pressure gradient source: uncorrected Ubar = 1, pressure gradient = 0.00253515
smoothSolver:  Solving for epsilon, Initial residual = 6.46287e-06, Final residual = 6.46287e-06, No Iterations 0
smoothSolver:  Solving for k, Initial residual = 9.76666e-06, Final residual = 9.76666e-06, No Iterations 0
ExecutionTime = 10.06 s  ClockTime = 11 s

Time = 2090

smoothSolver:  Solving for Ux, Initial residual = 6.06417e-07, Final residual = 6.06417e-07, No Iterations 0
smoothSolver:  Solving for Uy, Initial residual = 0.00126768, Final residual = 9.99454e-05, No Iterations 5
Pressure gradient source: uncorrected Ubar = 1, pressure gradient = 0.00253515
GAMG:  Solving for p, Initial residual = 0.000146327, Final residual = 1.43967e-06, No Iterations 14
time step continuity errors : sum local = 9.63041e-12, global = 6.14611e-18, cumulative = 1.55433e-14
Pressure gradient source: uncorrected Ubar = 1, pressure gradient = 0.00253515
smoothSolver:  Solving for epsilon, Initial residual = 6.46727e-06, Final residual = 6.46727e-06, No Iterations 0
smoothSolver:  Solving for k, Initial residual = 9.77248e-06, Final residual = 9.77248e-06, No Iterations 0
ExecutionTime = 10.06 s  ClockTime = 11 s

Time = 2091

smoothSolver:  Solving for Ux, Initial residual = 6.05521e-07, Final residual = 6.05521e-07, No Iterations 0
smoothSolver:  Solving for Uy, Initial residual = 0.00124984, Final residual = 9.86581e-05, No Iterations 5
Pressure gradient source: uncorrected Ubar = 1, pressure gradient = 0.00253515
GAMG:  Solving for p, Initial residual = 0.000143976, Final residual = 1.40456e-06, No Iterations 14
time step continuity errors : sum local = 9.38013e-12, global = 4.99605e-18, cumulative = 1.55483e-14
Pressure gradient source: uncorrected Ubar = 1, pressure gradient = 0.00253515
smoothSolver:  Solving for epsilon, Initial residual = 6.47169e-06, Final residual = 6.47169e-06, No Iterations 0
smoothSolver:  Solving for k, Initial residual = 9.77829e-06, Final residual = 9.77829e-06, No Iterations 0
ExecutionTime = 10.07 s  ClockTime = 11 s

Time = 2092

smoothSolver:  Solving for Ux, Initial residual = 6.04626e-07, Final residual = 6.04626e-07, No Iterations 0
smoothSolver:  Solving for Uy, Initial residual = 0.00123232, Final residual = 9.74288e-05, No Iterations 5
Pressure gradient source: uncorrected Ubar = 1, pressure gradient = 0.00253515
GAMG:  Solving for p, Initial residual = 0.000141669, Final residual = 1.392e-06, No Iterations 14
time step continuity errors : sum local = 9.29438e-12, global = 1.4764e-17, cumulative = 1.55631e-14
Pressure gradient source: uncorrected Ubar = 1, pressure gradient = 0.00253515
smoothSolver:  Solving for epsilon, Initial residual = 6.47613e-06, Final residual = 6.47613e-06, No Iterations 0
smoothSolver:  Solving for k, Initial residual = 9.78408e-06, Final residual = 9.78408e-06, No Iterations 0
ExecutionTime = 10.07 s  ClockTime = 11 s

Time = 2093

smoothSolver:  Solving for Ux, Initial residual = 6.03733e-07, Final residual = 6.03733e-07, No Iterations 0
smoothSolver:  Solving for Uy, Initial residual = 0.00121484, Final residual = 9.61893e-05, No Iterations 5
Pressure gradient source: uncorrected Ubar = 1, pressure gradient = 0.00253515
GAMG:  Solving for p, Initial residual = 0.000139438, Final residual = 1.37906e-06, No Iterations 14
time step continuity errors : sum local = 9.20695e-12, global = -6.41153e-18, cumulative = 1.55567e-14
Pressure gradient source: uncorrected Ubar = 1, pressure gradient = 0.00253515
smoothSolver:  Solving for epsilon, Initial residual = 6.48056e-06, Final residual = 6.48056e-06, No Iterations 0
smoothSolver:  Solving for k, Initial residual = 9.78986e-06, Final residual = 9.78986e-06, No Iterations 0
ExecutionTime = 10.08 s  ClockTime = 11 s

Time = 2094

smoothSolver:  Solving for Ux, Initial residual = 6.02842e-07, Final residual = 6.02842e-07, No Iterations 0
smoothSolver:  Solving for Uy, Initial residual = 0.0011979, Final residual = 9.49835e-05, No Iterations 5
Pressure gradient source: uncorrected Ubar = 1, pressure gradient = 0.00253515
GAMG:  Solving for p, Initial residual = 0.00013728, Final residual = 1.36384e-06, No Iterations 14
time step continuity errors : sum local = 9.10468e-12, global = -2.61509e-18, cumulative = 1.55541e-14
Pressure gradient source: uncorrected Ubar = 1, pressure gradient = 0.00253515
smoothSolver:  Solving for epsilon, Initial residual = 6.48497e-06, Final residual = 6.48497e-06, No Iterations 0
smoothSolver:  Solving for k, Initial residual = 9.79562e-06, Final residual = 9.79562e-06, No Iterations 0
ExecutionTime = 10.08 s  ClockTime = 11 s

Time = 2095

smoothSolver:  Solving for Ux, Initial residual = 6.01953e-07, Final residual = 6.01953e-07, No Iterations 0
smoothSolver:  Solving for Uy, Initial residual = 0.00118116, Final residual = 9.38027e-05, No Iterations 5
Pressure gradient source: uncorrected Ubar = 1, pressure gradient = 0.00253515
GAMG:  Solving for p, Initial residual = 0.000135167, Final residual = 1.3473e-06, No Iterations 14
time step continuity errors : sum local = 8.99383e-12, global = 4.14515e-17, cumulative = 1.55955e-14
Pressure gradient source: uncorrected Ubar = 1, pressure gradient = 0.00253515
smoothSolver:  Solving for epsilon, Initial residual = 6.48938e-06, Final residual = 6.48938e-06, No Iterations 0
smoothSolver:  Solving for k, Initial residual = 9.80139e-06, Final residual = 9.80139e-06, No Iterations 0
ExecutionTime = 10.09 s  ClockTime = 11 s

Time = 2096

smoothSolver:  Solving for Ux, Initial residual = 6.01065e-07, Final residual = 6.01065e-07, No Iterations 0
smoothSolver:  Solving for Uy, Initial residual = 0.00116475, Final residual = 9.26484e-05, No Iterations 5
Pressure gradient source: uncorrected Ubar = 1, pressure gradient = 0.00253515
GAMG:  Solving for p, Initial residual = 0.000133093, Final residual = 1.32973e-06, No Iterations 14
time step continuity errors : sum local = 8.87614e-12, global = 7.42376e-18, cumulative = 1.56029e-14
Pressure gradient source: uncorrected Ubar = 1, pressure gradient = 0.00253515
smoothSolver:  Solving for epsilon, Initial residual = 6.49378e-06, Final residual = 6.49378e-06, No Iterations 0
smoothSolver:  Solving for k, Initial residual = 9.80714e-06, Final residual = 9.80714e-06, No Iterations 0
ExecutionTime = 10.09 s  ClockTime = 11 s

Time = 2097

smoothSolver:  Solving for Ux, Initial residual = 6.00179e-07, Final residual = 6.00179e-07, No Iterations 0
smoothSolver:  Solving for Uy, Initial residual = 0.00114869, Final residual = 9.15056e-05, No Iterations 5
Pressure gradient source: uncorrected Ubar = 1, pressure gradient = 0.00253515
GAMG:  Solving for p, Initial residual = 0.000131095, Final residual = 1.22596e-06, No Iterations 15
time step continuity errors : sum local = 7.95927e-12, global = 4.24747e-17, cumulative = 1.56454e-14
Pressure gradient source: uncorrected Ubar = 1, pressure gradient = 0.00253515
smoothSolver:  Solving for epsilon, Initial residual = 6.49817e-06, Final residual = 6.49817e-06, No Iterations 0
smoothSolver:  Solving for k, Initial residual = 9.81288e-06, Final residual = 9.81288e-06, No Iterations 0
ExecutionTime = 10.1 s  ClockTime = 11 s

Time = 2098

smoothSolver:  Solving for Ux, Initial residual = 5.99295e-07, Final residual = 5.99295e-07, No Iterations 0
smoothSolver:  Solving for Uy, Initial residual = 0.00113392, Final residual = 9.04032e-05, No Iterations 5
Pressure gradient source: uncorrected Ubar = 1, pressure gradient = 0.00253515
GAMG:  Solving for p, Initial residual = 0.000129037, Final residual = 1.28095e-06, No Iterations 14
time step continuity errors : sum local = 8.54875e-12, global = 5.97402e-17, cumulative = 1.57052e-14
Pressure gradient source: uncorrected Ubar = 1, pressure gradient = 0.00253515
smoothSolver:  Solving for epsilon, Initial residual = 6.50255e-06, Final residual = 6.50255e-06, No Iterations 0
smoothSolver:  Solving for k, Initial residual = 9.81861e-06, Final residual = 9.81861e-06, No Iterations 0
ExecutionTime = 10.1 s  ClockTime = 11 s

Time = 2099

smoothSolver:  Solving for Ux, Initial residual = 5.98413e-07, Final residual = 5.98413e-07, No Iterations 0
smoothSolver:  Solving for Uy, Initial residual = 0.00111726, Final residual = 8.92462e-05, No Iterations 5
Pressure gradient source: uncorrected Ubar = 1, pressure gradient = 0.00253515
GAMG:  Solving for p, Initial residual = 0.000127277, Final residual = 1.2722e-06, No Iterations 14
time step continuity errors : sum local = 8.49183e-12, global = 1.17913e-17, cumulative = 1.57169e-14
Pressure gradient source: uncorrected Ubar = 1, pressure gradient = 0.00253515
smoothSolver:  Solving for epsilon, Initial residual = 6.50696e-06, Final residual = 6.50696e-06, No Iterations 0
smoothSolver:  Solving for k, Initial residual = 9.82433e-06, Final residual = 9.82433e-06, No Iterations 0
ExecutionTime = 10.11 s  ClockTime = 11 s

Time = 2100

smoothSolver:  Solving for Ux, Initial residual = 5.97533e-07, Final residual = 5.97533e-07, No Iterations 0
smoothSolver:  Solving for Uy, Initial residual = 0.0011026, Final residual = 8.81701e-05, No Iterations 5
Pressure gradient source: uncorrected Ubar = 1, pressure gradient = 0.00253515
GAMG:  Solving for p, Initial residual = 0.000125444, Final residual = 1.25334e-06, No Iterations 14
time step continuity errors : sum local = 8.36518e-12, global = 4.4171e-17, cumulative = 1.57611e-14
Pressure gradient source: uncorrected Ubar = 1, pressure gradient = 0.00253515
smoothSolver:  Solving for epsilon, Initial residual = 6.51137e-06, Final residual = 6.51137e-06, No Iterations 0
smoothSolver:  Solving for k, Initial residual = 9.83002e-06, Final residual = 9.83002e-06, No Iterations 0
ExecutionTime = 10.11 s  ClockTime = 11 s

Time = 2101

smoothSolver:  Solving for Ux, Initial residual = 5.96654e-07, Final residual = 5.96654e-07, No Iterations 0
smoothSolver:  Solving for Uy, Initial residual = 0.00108799, Final residual = 8.70909e-05, No Iterations 5
Pressure gradient source: uncorrected Ubar = 1, pressure gradient = 0.00253515
GAMG:  Solving for p, Initial residual = 0.000123605, Final residual = 1.23366e-06, No Iterations 14
time step continuity errors : sum local = 8.23308e-12, global = 2.15962e-18, cumulative = 1.57633e-14
Pressure gradient source: uncorrected Ubar = 1, pressure gradient = 0.00253515
smoothSolver:  Solving for epsilon, Initial residual = 6.51578e-06, Final residual = 6.51578e-06, No Iterations 0
smoothSolver:  Solving for k, Initial residual = 9.83571e-06, Final residual = 9.83571e-06, No Iterations 0
ExecutionTime = 10.12 s  ClockTime = 11 s

Time = 2102

smoothSolver:  Solving for Ux, Initial residual = 5.95778e-07, Final residual = 5.95778e-07, No Iterations 0
smoothSolver:  Solving for Uy, Initial residual = 0.00107359, Final residual = 8.60256e-05, No Iterations 5
Pressure gradient source: uncorrected Ubar = 1, pressure gradient = 0.00253515
GAMG:  Solving for p, Initial residual = 0.000121777, Final residual = 1.21362e-06, No Iterations 14
time step continuity errors : sum local = 8.09866e-12, global = -1.66722e-18, cumulative = 1.57616e-14
Pressure gradient source: uncorrected Ubar = 1, pressure gradient = 0.00253515
smoothSolver:  Solving for epsilon, Initial residual = 6.52021e-06, Final residual = 6.52021e-06, No Iterations 0
smoothSolver:  Solving for k, Initial residual = 9.84138e-06, Final residual = 9.84138e-06, No Iterations 0
ExecutionTime = 10.12 s  ClockTime = 11 s

Time = 2103

smoothSolver:  Solving for Ux, Initial residual = 5.94903e-07, Final residual = 5.94903e-07, No Iterations 0
smoothSolver:  Solving for Uy, Initial residual = 0.0010592, Final residual = 8.49674e-05, No Iterations 5
Pressure gradient source: uncorrected Ubar = 1, pressure gradient = 0.00253515
GAMG:  Solving for p, Initial residual = 0.000119999, Final residual = 1.1933e-06, No Iterations 14
time step continuity errors : sum local = 7.96254e-12, global = 5.01151e-17, cumulative = 1.58117e-14
Pressure gradient source: uncorrected Ubar = 1, pressure gradient = 0.00253515
smoothSolver:  Solving for epsilon, Initial residual = 6.52463e-06, Final residual = 6.52463e-06, No Iterations 0
smoothSolver:  Solving for k, Initial residual = 9.84705e-06, Final residual = 9.84705e-06, No Iterations 0
ExecutionTime = 10.14 s  ClockTime = 11 s

Time = 2104

smoothSolver:  Solving for Ux, Initial residual = 5.94029e-07, Final residual = 5.94029e-07, No Iterations 0
smoothSolver:  Solving for Uy, Initial residual = 0.00104502, Final residual = 8.39169e-05, No Iterations 5
Pressure gradient source: uncorrected Ubar = 1, pressure gradient = 0.00253515
GAMG:  Solving for p, Initial residual = 0.00011825, Final residual = 1.17276e-06, No Iterations 14
time step continuity errors : sum local = 7.82478e-12, global = 4.04964e-19, cumulative = 1.58121e-14
Pressure gradient source: uncorrected Ubar = 1, pressure gradient = 0.00253516
smoothSolver:  Solving for epsilon, Initial residual = 6.52908e-06, Final residual = 6.52908e-06, No Iterations 0
smoothSolver:  Solving for k, Initial residual = 9.85271e-06, Final residual = 9.85271e-06, No Iterations 0
ExecutionTime = 10.14 s  ClockTime = 11 s

Time = 2105

smoothSolver:  Solving for Ux, Initial residual = 5.93158e-07, Final residual = 5.93158e-07, No Iterations 0
smoothSolver:  Solving for Uy, Initial residual = 0.00103096, Final residual = 8.2885e-05, No Iterations 5
Pressure gradient source: uncorrected Ubar = 1, pressure gradient = 0.00253516
GAMG:  Solving for p, Initial residual = 0.000116547, Final residual = 1.15187e-06, No Iterations 14
time step continuity errors : sum local = 7.68478e-12, global = 4.2623e-17, cumulative = 1.58548e-14
Pressure gradient source: uncorrected Ubar = 1, pressure gradient = 0.00253516
smoothSolver:  Solving for epsilon, Initial residual = 6.53352e-06, Final residual = 6.53352e-06, No Iterations 0
smoothSolver:  Solving for k, Initial residual = 9.85836e-06, Final residual = 9.85836e-06, No Iterations 0
ExecutionTime = 10.15 s  ClockTime = 11 s

Time = 2106

smoothSolver:  Solving for Ux, Initial residual = 5.92288e-07, Final residual = 5.92288e-07, No Iterations 0
smoothSolver:  Solving for Uy, Initial residual = 0.00101719, Final residual = 8.18548e-05, No Iterations 5
Pressure gradient source: uncorrected Ubar = 1, pressure gradient = 0.00253516
GAMG:  Solving for p, Initial residual = 0.000114859, Final residual = 1.13091e-06, No Iterations 14
time step continuity errors : sum local = 7.54434e-12, global = 8.06308e-19, cumulative = 1.58556e-14
Pressure gradient source: uncorrected Ubar = 1, pressure gradient = 0.00253516
smoothSolver:  Solving for epsilon, Initial residual = 6.53798e-06, Final residual = 6.53798e-06, No Iterations 0
smoothSolver:  Solving for k, Initial residual = 9.86401e-06, Final residual = 9.86401e-06, No Iterations 0
ExecutionTime = 10.15 s  ClockTime = 11 s

Time = 2107

smoothSolver:  Solving for Ux, Initial residual = 5.9142e-07, Final residual = 5.9142e-07, No Iterations 0
smoothSolver:  Solving for Uy, Initial residual = 0.00100357, Final residual = 8.08285e-05, No Iterations 5
Pressure gradient source: uncorrected Ubar = 1, pressure gradient = 0.00253516
GAMG:  Solving for p, Initial residual = 0.00011319, Final residual = 1.10994e-06, No Iterations 14
time step continuity errors : sum local = 7.40369e-12, global = 4.67628e-18, cumulative = 1.58602e-14
Pressure gradient source: uncorrected Ubar = 1, pressure gradient = 0.00253516
smoothSolver:  Solving for epsilon, Initial residual = 6.54243e-06, Final residual = 6.54243e-06, No Iterations 0
smoothSolver:  Solving for k, Initial residual = 9.86966e-06, Final residual = 9.86966e-06, No Iterations 0
ExecutionTime = 10.16 s  ClockTime = 11 s

Time = 2108

smoothSolver:  Solving for Ux, Initial residual = 5.90554e-07, Final residual = 5.90554e-07, No Iterations 0
smoothSolver:  Solving for Uy, Initial residual = 0.000990181, Final residual = 7.98127e-05, No Iterations 5
Pressure gradient source: uncorrected Ubar = 1, pressure gradient = 0.00253516
GAMG:  Solving for p, Initial residual = 0.000111547, Final residual = 1.08903e-06, No Iterations 14
time step continuity errors : sum local = 7.26333e-12, global = -6.71533e-18, cumulative = 1.58535e-14
Pressure gradient source: uncorrected Ubar = 1, pressure gradient = 0.00253516
smoothSolver:  Solving for epsilon, Initial residual = 6.54688e-06, Final residual = 6.54688e-06, No Iterations 0
smoothSolver:  Solving for k, Initial residual = 9.87529e-06, Final residual = 9.87529e-06, No Iterations 0
ExecutionTime = 10.16 s  ClockTime = 11 s


SIMPLE solution converged in 2108 iterations

yPlus yPlus write:
    writing field yPlus
    patch wall y+ : min = 0.28577, max = 0.285777, average = 0.285774
    functionObjects::grad grad writing field: grad(p)
End

