/*---------------------------------------------------------------------------*\
| =========                 |                                                 |
| \\      /  F ield         | OpenFOAM: The Open Source CFD Toolbox           |
|  \\    /   O peration     | Version:  2206                                  |
|   \\  /    A nd           | Website:  www.openfoam.com                      |
|    \\/     M anipulation  |                                                 |
\*---------------------------------------------------------------------------*/
Build  : _76d719d1-20220624 OPENFOAM=2206 version=2206
Arch   : "LSB;label=32;scalar=64"
Exec   : simpleFoam
Date   : Sep 24 2022
Time   : 11:29:23
Host   : fedoragq
PID    : 28709
I/O    : uncollated
Case   : /home/giuseppegq/volume/OpenFoam/planeChannelRAS/common
nProcs : 1
trapFpe: Floating point exception trapping enabled (FOAM_SIGFPE).
fileModificationChecking : Monitoring run-time modified files using timeStampMaster (fileModificationSkew 5, maxFileModificationPolls 20)
allowSystemOperations : Allowing user-supplied system call operations

// * * * * * * * * * * * * * * * * * * * * * * * * * * * * * * * * * * * * * //
Create time

Create mesh for time = 0


SIMPLE: no convergence criteria found. Calculations will run for 5000 steps.

Reading field p

Reading field U

Reading/calculating face flux field phi

Selecting incompressible transport model Newtonian
Selecting turbulence model type RAS
Selecting RAS turbulence model LaunderSharmaKE
RAS
{
    RASModel        LaunderSharmaKE;
    turbulence      on;
    printCoeffs     on;
    Cmu             0.09;
    C1              1.44;
    C2              1.92;
    C3              0;
    sigmak          1;
    sigmaEps        1.3;
}

No MRF models present

Creating finite volume options from "constant/fvOptions"

Selecting finite volume options type meanVelocityForce
    Source: momentumSource
    - selecting all cells
    - selected 1800 cell(s) with volume 0.2
    Initial pressure gradient = 0


Starting time loop

forceCoeffs forceCoeffs1:
    rho: rhoInf
    Freestream density (rhoInf) set to 1
    Not including porosity effects
    magUInf: 1
    lRef   : 2
    Aref   : 2
    rhoInf : 1
    Selecting coefficients:
    - Drag force: Cd


runTimeControl runTimeControl1:
Selecting runTimeCondition equationInitialResidual
Selecting runTimeCondition average
Selecting runTimeCondition equationInitialResidual

Time = 1

smoothSolver:  Solving for Ux, Initial residual = 0, Final residual = 0, No Iterations 0
smoothSolver:  Solving for Uy, Initial residual = 0, Final residual = 0, No Iterations 0
Pressure gradient source: uncorrected Ubar = 0, pressure gradient = 8.46253
GAMG:  Solving for p, Initial residual = 0.999994, Final residual = 0.00469949, No Iterations 3
time step continuity errors : sum local = 8.62358e-16, global = 3.06024e-17, cumulative = 3.06024e-17
Pressure gradient source: uncorrected Ubar = 0.862192, pressure gradient = 1.1662
smoothSolver:  Solving for epsilon, Initial residual = 1, Final residual = 0.0982594, No Iterations 1
bounding epsilon, min: -4.06664 max: 14.3687 average: 7.30572
smoothSolver:  Solving for k, Initial residual = 1, Final residual = 0.0682732, No Iterations 4
ExecutionTime = 0.05 s  ClockTime = 0 s

forceCoeffs forceCoeffs1 write:
    Coefficient	Total	Pressure	Viscous	Internal
    Cd:	5.69442e-05	5.69442e-05	0	0

    writing force and moment coefficient files.

runTimeControl runTimeControl1 output:
    runTimeControl: condition1 averages:
        CdMean: 5.69442e-05, delta: 0

    Conditions not met

Time = 2

smoothSolver:  Solving for Ux, Initial residual = 0.12082, Final residual = 0.00884921, No Iterations 4
smoothSolver:  Solving for Uy, Initial residual = 1, Final residual = 0.0594284, No Iterations 2
Pressure gradient source: uncorrected Ubar = 1.13834, pressure gradient = -7.1127
GAMG:  Solving for p, Initial residual = 1, Final residual = 0.00937453, No Iterations 3
time step continuity errors : sum local = 0.00189352, global = 2.40473e-17, cumulative = 5.46496e-17
Pressure gradient source: uncorrected Ubar = 1.02339, pressure gradient = -0.233456
smoothSolver:  Solving for epsilon, Initial residual = 0.34212, Final residual = 0.0226915, No Iterations 3
smoothSolver:  Solving for k, Initial residual = 0.543639, Final residual = 0.0516728, No Iterations 3
ExecutionTime = 0.06 s  ClockTime = 0 s

forceCoeffs forceCoeffs1 write:
    Coefficient	Total	Pressure	Viscous	Internal
    Cd:	7.42708e-05	7.42708e-05	0	0

    writing force and moment coefficient files.

runTimeControl runTimeControl1 output:
    runTimeControl: condition1 averages:
        CdMean: 6.56075e-05, delta: 8.66326e-06

    Conditions not met

Time = 3

smoothSolver:  Solving for Ux, Initial residual = 0.0420099, Final residual = 0.00268065, No Iterations 4
smoothSolver:  Solving for Uy, Initial residual = 0.584199, Final residual = 0.0363208, No Iterations 2
Pressure gradient source: uncorrected Ubar = 0.968268, pressure gradient = 2.4106
GAMG:  Solving for p, Initial residual = 0.134875, Final residual = 0.000885138, No Iterations 5
time step continuity errors : sum local = 0.000309691, global = -4.18074e-17, cumulative = 1.28422e-17
Pressure gradient source: uncorrected Ubar = 0.995409, pressure gradient = 0.149092
smoothSolver:  Solving for epsilon, Initial residual = 0.138542, Final residual = 0.0093132, No Iterations 5
smoothSolver:  Solving for k, Initial residual = 0.278774, Final residual = 0.021288, No Iterations 5
ExecutionTime = 0.06 s  ClockTime = 0 s

forceCoeffs forceCoeffs1 write:
    Coefficient	Total	Pressure	Viscous	Internal
    Cd:	7.84491e-05	7.84491e-05	0	0

    writing force and moment coefficient files.

runTimeControl runTimeControl1 output:
    runTimeControl: condition1 averages:
        CdMean: 6.9888e-05, delta: 8.56107e-06

    Conditions not met

Time = 4

smoothSolver:  Solving for Ux, Initial residual = 0.0228652, Final residual = 0.00222646, No Iterations 4
smoothSolver:  Solving for Uy, Initial residual = 0.419635, Final residual = 0.0407891, No Iterations 2
Pressure gradient source: uncorrected Ubar = 1.00358, pressure gradient = -0.172547
GAMG:  Solving for p, Initial residual = 0.105882, Final residual = 0.000788702, No Iterations 4
time step continuity errors : sum local = 0.000255251, global = -4.40457e-18, cumulative = 8.43764e-18
Pressure gradient source: uncorrected Ubar = 1.00047, pressure gradient = 0.107153
smoothSolver:  Solving for epsilon, Initial residual = 0.112565, Final residual = 0.00898277, No Iterations 5
smoothSolver:  Solving for k, Initial residual = 0.221647, Final residual = 0.0187112, No Iterations 5
ExecutionTime = 0.07 s  ClockTime = 0 s

forceCoeffs forceCoeffs1 write:
    Coefficient	Total	Pressure	Viscous	Internal
    Cd:	9.34081e-05	9.34081e-05	0	0

    writing force and moment coefficient files.

runTimeControl runTimeControl1 output:
    runTimeControl: condition1 averages:
        CdMean: 7.5768e-05, delta: 1.764e-05

    Conditions not met

Time = 5

smoothSolver:  Solving for Ux, Initial residual = 0.0161752, Final residual = 0.0011952, No Iterations 5
smoothSolver:  Solving for Uy, Initial residual = 0.395517, Final residual = 0.0256023, No Iterations 3
Pressure gradient source: uncorrected Ubar = 1.00091, pressure gradient = 0.0208714
GAMG:  Solving for p, Initial residual = 0.112459, Final residual = 0.00069911, No Iterations 5
time step continuity errors : sum local = 0.000199063, global = -1.6659e-17, cumulative = -8.22138e-18
Pressure gradient source: uncorrected Ubar = 1.00019, pressure gradient = 0.0894154
smoothSolver:  Solving for epsilon, Initial residual = 0.0985641, Final residual = 0.00845346, No Iterations 5
smoothSolver:  Solving for k, Initial residual = 0.19746, Final residual = 0.0176641, No Iterations 5
ExecutionTime = 0.07 s  ClockTime = 0 s

forceCoeffs forceCoeffs1 write:
    Coefficient	Total	Pressure	Viscous	Internal
    Cd:	0.000105837	0.000105837	0	0

    writing force and moment coefficient files.

runTimeControl runTimeControl1 output:
    runTimeControl: condition1 averages:
        CdMean: 8.17819e-05, delta: 2.40555e-05

    Conditions not met

Time = 6

smoothSolver:  Solving for Ux, Initial residual = 0.0125116, Final residual = 0.00105839, No Iterations 5
smoothSolver:  Solving for Uy, Initial residual = 0.412735, Final residual = 0.0377278, No Iterations 3
Pressure gradient source: uncorrected Ubar = 1.00038, pressure gradient = 0.0518588
GAMG:  Solving for p, Initial residual = 0.114099, Final residual = 0.000895985, No Iterations 4
time step continuity errors : sum local = 0.000213499, global = 5.04726e-18, cumulative = -3.17412e-18
Pressure gradient source: uncorrected Ubar = 1.00007, pressure gradient = 0.0821517
smoothSolver:  Solving for epsilon, Initial residual = 0.0913946, Final residual = 0.00821548, No Iterations 5
smoothSolver:  Solving for k, Initial residual = 0.18328, Final residual = 0.0168194, No Iterations 5
ExecutionTime = 0.08 s  ClockTime = 0 s

forceCoeffs forceCoeffs1 write:
    Coefficient	Total	Pressure	Viscous	Internal
    Cd:	0.000118069	0.000118069	0	0

    writing force and moment coefficient files.

runTimeControl runTimeControl1 output:
    runTimeControl: condition1 averages:
        CdMean: 8.78298e-05, delta: 3.02395e-05

    Conditions not met

Time = 7

smoothSolver:  Solving for Ux, Initial residual = 0.0105188, Final residual = 0.000973267, No Iterations 5
smoothSolver:  Solving for Uy, Initial residual = 0.408502, Final residual = 0.0258086, No Iterations 4
Pressure gradient source: uncorrected Ubar = 1.00033, pressure gradient = 0.0483976
GAMG:  Solving for p, Initial residual = 0.113528, Final residual = 0.00091713, No Iterations 4
time step continuity errors : sum local = 0.000179409, global = -3.63689e-17, cumulative = -3.95431e-17
Pressure gradient source: uncorrected Ubar = 1.00005, pressure gradient = 0.0768745
smoothSolver:  Solving for epsilon, Initial residual = 0.0844716, Final residual = 0.00781499, No Iterations 5
smoothSolver:  Solving for k, Initial residual = 0.173491, Final residual = 0.0164997, No Iterations 5
ExecutionTime = 0.08 s  ClockTime = 0 s

forceCoeffs forceCoeffs1 write:
    Coefficient	Total	Pressure	Viscous	Internal
    Cd:	0.000130382	0.000130382	0	0

    writing force and moment coefficient files.

runTimeControl runTimeControl1 output:
    runTimeControl: condition1 averages:
        CdMean: 9.39087e-05, delta: 3.64734e-05

    Conditions not met

Time = 8

smoothSolver:  Solving for Ux, Initial residual = 0.00914271, Final residual = 0.000910128, No Iterations 5
smoothSolver:  Solving for Uy, Initial residual = 0.372013, Final residual = 0.0261635, No Iterations 4
Pressure gradient source: uncorrected Ubar = 1.00031, pressure gradient = 0.0446996
GAMG:  Solving for p, Initial residual = 0.10301, Final residual = 0.000590312, No Iterations 4
time step continuity errors : sum local = 9.61953e-05, global = -9.19799e-18, cumulative = -4.87411e-17
Pressure gradient source: uncorrected Ubar = 1.00005, pressure gradient = 0.071859
smoothSolver:  Solving for epsilon, Initial residual = 0.079801, Final residual = 0.0075702, No Iterations 5
smoothSolver:  Solving for k, Initial residual = 0.167656, Final residual = 0.0162981, No Iterations 5
ExecutionTime = 0.09 s  ClockTime = 0 s

forceCoeffs forceCoeffs1 write:
    Coefficient	Total	Pressure	Viscous	Internal
    Cd:	0.000142837	0.000142837	0	0

    writing force and moment coefficient files.

runTimeControl runTimeControl1 output:
    runTimeControl: condition1 averages:
        CdMean: 0.000100025, delta: 4.2812e-05

    Conditions not met

Time = 9

smoothSolver:  Solving for Ux, Initial residual = 0.0081535, Final residual = 0.000563981, No Iterations 6
smoothSolver:  Solving for Uy, Initial residual = 0.337627, Final residual = 0.0247582, No Iterations 4
Pressure gradient source: uncorrected Ubar = 1.00024, pressure gradient = 0.0463056
GAMG:  Solving for p, Initial residual = 0.0935102, Final residual = 0.000644417, No Iterations 4
time step continuity errors : sum local = 9.0494e-05, global = 3.36971e-17, cumulative = -1.5044e-17
Pressure gradient source: uncorrected Ubar = 1.00004, pressure gradient = 0.0674529
smoothSolver:  Solving for epsilon, Initial residual = 0.0753562, Final residual = 0.0072735, No Iterations 5
smoothSolver:  Solving for k, Initial residual = 0.163046, Final residual = 0.0161597, No Iterations 5
ExecutionTime = 0.09 s  ClockTime = 0 s

forceCoeffs forceCoeffs1 write:
    Coefficient	Total	Pressure	Viscous	Internal
    Cd:	0.000156261	0.000156261	0	0

    writing force and moment coefficient files.

runTimeControl runTimeControl1 output:
    runTimeControl: condition1 averages:
        CdMean: 0.000106273, delta: 4.99875e-05

    Conditions not met

Time = 10

smoothSolver:  Solving for Ux, Initial residual = 0.00740658, Final residual = 0.000538949, No Iterations 6
smoothSolver:  Solving for Uy, Initial residual = 0.332533, Final residual = 0.0241777, No Iterations 4
Pressure gradient source: uncorrected Ubar = 1.0001, pressure gradient = 0.0564337
GAMG:  Solving for p, Initial residual = 0.0868372, Final residual = 0.000858961, No Iterations 4
time step continuity errors : sum local = 0.000105708, global = 4.81035e-18, cumulative = -1.02336e-17
Pressure gradient source: uncorrected Ubar = 1.00002, pressure gradient = 0.064921
smoothSolver:  Solving for epsilon, Initial residual = 0.0721375, Final residual = 0.00708327, No Iterations 5
smoothSolver:  Solving for k, Initial residual = 0.159493, Final residual = 0.010254, No Iterations 6
ExecutionTime = 0.1 s  ClockTime = 0 s

forceCoeffs forceCoeffs1 write:
    Coefficient	Total	Pressure	Viscous	Internal
    Cd:	0.000170093	0.000170093	0	0

    writing force and moment coefficient files.

runTimeControl runTimeControl1 output:
    runTimeControl: condition1 averages:
        CdMean: 0.000112655, delta: 5.74383e-05

    Conditions not met

Time = 11

smoothSolver:  Solving for Ux, Initial residual = 0.00689055, Final residual = 0.000517935, No Iterations 6
smoothSolver:  Solving for Uy, Initial residual = 0.333175, Final residual = 0.0225956, No Iterations 4
Pressure gradient source: uncorrected Ubar = 1.00008, pressure gradient = 0.0558053
GAMG:  Solving for p, Initial residual = 0.0843372, Final residual = 0.000348009, No Iterations 5
time step continuity errors : sum local = 3.89238e-05, global = 2.07728e-17, cumulative = 1.05392e-17
Pressure gradient source: uncorrected Ubar = 1.00002, pressure gradient = 0.0628578
smoothSolver:  Solving for epsilon, Initial residual = 0.0692333, Final residual = 0.00686361, No Iterations 5
smoothSolver:  Solving for k, Initial residual = 0.159168, Final residual = 0.0103728, No Iterations 6
ExecutionTime = 0.1 s  ClockTime = 0 s

forceCoeffs forceCoeffs1 write:
    Coefficient	Total	Pressure	Viscous	Internal
    Cd:	0.000184111	0.000184111	0	0

    writing force and moment coefficient files.

runTimeControl runTimeControl1 output:
    runTimeControl: condition1 averages:
        CdMean: 0.000119151, delta: 6.49597e-05

    Conditions not met

Time = 12

smoothSolver:  Solving for Ux, Initial residual = 0.00660504, Final residual = 0.000501084, No Iterations 6
smoothSolver:  Solving for Uy, Initial residual = 0.316273, Final residual = 0.0209378, No Iterations 4
Pressure gradient source: uncorrected Ubar = 1.00005, pressure gradient = 0.0575574
GAMG:  Solving for p, Initial residual = 0.0820307, Final residual = 0.000691244, No Iterations 4
time step continuity errors : sum local = 6.46493e-05, global = 1.69737e-17, cumulative = 2.7513e-17
Pressure gradient source: uncorrected Ubar = 1.00001, pressure gradient = 0.0613456
smoothSolver:  Solving for epsilon, Initial residual = 0.0669032, Final residual = 0.00425109, No Iterations 6
smoothSolver:  Solving for k, Initial residual = 0.158031, Final residual = 0.0104169, No Iterations 6
ExecutionTime = 0.11 s  ClockTime = 0 s

forceCoeffs forceCoeffs1 write:
    Coefficient	Total	Pressure	Viscous	Internal
    Cd:	0.000198485	0.000198485	0	0

    writing force and moment coefficient files.

runTimeControl runTimeControl1 output:
    runTimeControl: condition1 averages:
        CdMean: 0.000125762, delta: 7.27228e-05

    Conditions not met

Time = 13

smoothSolver:  Solving for Ux, Initial residual = 0.00644365, Final residual = 0.000488023, No Iterations 6
smoothSolver:  Solving for Uy, Initial residual = 0.292728, Final residual = 0.0193319, No Iterations 4
Pressure gradient source: uncorrected Ubar = 1.00001, pressure gradient = 0.0607785
GAMG:  Solving for p, Initial residual = 0.0777678, Final residual = 0.000702181, No Iterations 4
time step continuity errors : sum local = 5.7276e-05, global = -6.844e-17, cumulative = -4.0927e-17
Pressure gradient source: uncorrected Ubar = 1.00001, pressure gradient = 0.0603663
smoothSolver:  Solving for epsilon, Initial residual = 0.0648142, Final residual = 0.00418444, No Iterations 6
smoothSolver:  Solving for k, Initial residual = 0.156499, Final residual = 0.0104928, No Iterations 6
ExecutionTime = 0.11 s  ClockTime = 0 s

forceCoeffs forceCoeffs1 write:
    Coefficient	Total	Pressure	Viscous	Internal
    Cd:	0.000213633	0.000213633	0	0

    writing force and moment coefficient files.

runTimeControl runTimeControl1 output:
    runTimeControl: condition1 averages:
        CdMean: 0.000132522, delta: 8.11117e-05

    Conditions not met

Time = 14

smoothSolver:  Solving for Ux, Initial residual = 0.0062915, Final residual = 0.00047585, No Iterations 6
smoothSolver:  Solving for Uy, Initial residual = 0.27135, Final residual = 0.0184754, No Iterations 4
Pressure gradient source: uncorrected Ubar = 0.999997, pressure gradient = 0.060748
GAMG:  Solving for p, Initial residual = 0.0731237, Final residual = 0.000565148, No Iterations 4
time step continuity errors : sum local = 4.05077e-05, global = 3.74629e-17, cumulative = -3.4641e-18
Pressure gradient source: uncorrected Ubar = 1.00001, pressure gradient = 0.0594728
smoothSolver:  Solving for epsilon, Initial residual = 0.0624408, Final residual = 0.00408528, No Iterations 6
smoothSolver:  Solving for k, Initial residual = 0.155371, Final residual = 0.0106319, No Iterations 6
ExecutionTime = 0.12 s  ClockTime = 0 s

forceCoeffs forceCoeffs1 write:
    Coefficient	Total	Pressure	Viscous	Internal
    Cd:	0.000229443	0.000229443	0	0

    writing force and moment coefficient files.

runTimeControl runTimeControl1 output:
    runTimeControl: condition1 averages:
        CdMean: 0.000139445, delta: 8.99986e-05

    Conditions not met

Time = 15

smoothSolver:  Solving for Ux, Initial residual = 0.00616587, Final residual = 0.000464898, No Iterations 6
smoothSolver:  Solving for Uy, Initial residual = 0.249878, Final residual = 0.0179162, No Iterations 4
Pressure gradient source: uncorrected Ubar = 0.99998, pressure gradient = 0.0616816
GAMG:  Solving for p, Initial residual = 0.0696729, Final residual = 0.00064927, No Iterations 3
time step continuity errors : sum local = 4.04548e-05, global = 2.86091e-17, cumulative = 2.5145e-17
Pressure gradient source: uncorrected Ubar = 1.00001, pressure gradient = 0.0587867
smoothSolver:  Solving for epsilon, Initial residual = 0.0602794, Final residual = 0.00399142, No Iterations 6
smoothSolver:  Solving for k, Initial residual = 0.153607, Final residual = 0.0107071, No Iterations 6
ExecutionTime = 0.12 s  ClockTime = 0 s

forceCoeffs forceCoeffs1 write:
    Coefficient	Total	Pressure	Viscous	Internal
    Cd:	0.000245891	0.000245891	0	0

    writing force and moment coefficient files.

runTimeControl runTimeControl1 output:
    runTimeControl: condition1 averages:
        CdMean: 0.000146541, delta: 9.93503e-05

    Conditions not met

Time = 16

smoothSolver:  Solving for Ux, Initial residual = 0.00606654, Final residual = 0.000456877, No Iterations 6
smoothSolver:  Solving for Uy, Initial residual = 0.233829, Final residual = 0.0180252, No Iterations 4
Pressure gradient source: uncorrected Ubar = 0.999954, pressure gradient = 0.0639583
GAMG:  Solving for p, Initial residual = 0.0698757, Final residual = 0.000479905, No Iterations 4
time step continuity errors : sum local = 2.62319e-05, global = 1.36899e-17, cumulative = 3.88349e-17
Pressure gradient source: uncorrected Ubar = 1, pressure gradient = 0.058477
smoothSolver:  Solving for epsilon, Initial residual = 0.0583965, Final residual = 0.00390989, No Iterations 6
smoothSolver:  Solving for k, Initial residual = 0.151863, Final residual = 0.0107764, No Iterations 6
ExecutionTime = 0.13 s  ClockTime = 0 s

forceCoeffs forceCoeffs1 write:
    Coefficient	Total	Pressure	Viscous	Internal
    Cd:	0.000263005	0.000263005	0	0

    writing force and moment coefficient files.

runTimeControl runTimeControl1 output:
    runTimeControl: condition1 averages:
        CdMean: 0.00015382, delta: 0.000109185

    Conditions not met

Time = 17

smoothSolver:  Solving for Ux, Initial residual = 0.00597463, Final residual = 0.000450109, No Iterations 6
smoothSolver:  Solving for Uy, Initial residual = 0.217237, Final residual = 0.0165443, No Iterations 4
Pressure gradient source: uncorrected Ubar = 0.999945, pressure gradient = 0.064673
GAMG:  Solving for p, Initial residual = 0.0677016, Final residual = 0.000661267, No Iterations 3
time step continuity errors : sum local = 3.11192e-05, global = 1.14217e-19, cumulative = 3.89491e-17
Pressure gradient source: uncorrected Ubar = 1, pressure gradient = 0.0582809
smoothSolver:  Solving for epsilon, Initial residual = 0.0571746, Final residual = 0.00386904, No Iterations 6
smoothSolver:  Solving for k, Initial residual = 0.148905, Final residual = 0.0106569, No Iterations 6
ExecutionTime = 0.14 s  ClockTime = 0 s

forceCoeffs forceCoeffs1 write:
    Coefficient	Total	Pressure	Viscous	Internal
    Cd:	0.000280781	0.000280781	0	0

    writing force and moment coefficient files.

runTimeControl runTimeControl1 output:
    runTimeControl: condition1 averages:
        CdMean: 0.000161288, delta: 0.000119492

    Conditions not met

Time = 18

smoothSolver:  Solving for Ux, Initial residual = 0.00587063, Final residual = 0.000441872, No Iterations 6
smoothSolver:  Solving for Uy, Initial residual = 0.197663, Final residual = 0.0150828, No Iterations 4
Pressure gradient source: uncorrected Ubar = 0.999964, pressure gradient = 0.0623794
GAMG:  Solving for p, Initial residual = 0.0662146, Final residual = 0.000640396, No Iterations 3
time step continuity errors : sum local = 2.74381e-05, global = -7.43192e-18, cumulative = 3.15172e-17
Pressure gradient source: uncorrected Ubar = 1, pressure gradient = 0.057818
smoothSolver:  Solving for epsilon, Initial residual = 0.0552527, Final residual = 0.00377637, No Iterations 6
smoothSolver:  Solving for k, Initial residual = 0.145987, Final residual = 0.0106748, No Iterations 6
ExecutionTime = 0.15 s  ClockTime = 0 s

forceCoeffs forceCoeffs1 write:
    Coefficient	Total	Pressure	Viscous	Internal
    Cd:	0.000299165	0.000299165	0	0

    writing force and moment coefficient files.

runTimeControl runTimeControl1 output:
    runTimeControl: condition1 averages:
        CdMean: 0.000168948, delta: 0.000130217

    Conditions not met

Time = 19

smoothSolver:  Solving for Ux, Initial residual = 0.00579022, Final residual = 0.000435857, No Iterations 6
smoothSolver:  Solving for Uy, Initial residual = 0.181368, Final residual = 0.0138838, No Iterations 4
Pressure gradient source: uncorrected Ubar = 0.999935, pressure gradient = 0.0652502
GAMG:  Solving for p, Initial residual = 0.0647829, Final residual = 0.000358059, No Iterations 4
time step continuity errors : sum local = 1.43087e-05, global = -7.03481e-18, cumulative = 2.44824e-17
Pressure gradient source: uncorrected Ubar = 1, pressure gradient = 0.0577969
smoothSolver:  Solving for epsilon, Initial residual = 0.0542627, Final residual = 0.00374219, No Iterations 6
smoothSolver:  Solving for k, Initial residual = 0.141344, Final residual = 0.010366, No Iterations 6
ExecutionTime = 0.15 s  ClockTime = 0 s

forceCoeffs forceCoeffs1 write:
    Coefficient	Total	Pressure	Viscous	Internal
    Cd:	0.000318226	0.000318226	0	0

    writing force and moment coefficient files.

runTimeControl runTimeControl1 output:
    runTimeControl: condition1 averages:
        CdMean: 0.000176805, delta: 0.000141421

    Conditions not met

Time = 20

smoothSolver:  Solving for Ux, Initial residual = 0.00570355, Final residual = 0.000429606, No Iterations 6
smoothSolver:  Solving for Uy, Initial residual = 0.172625, Final residual = 0.0140746, No Iterations 4
Pressure gradient source: uncorrected Ubar = 0.999951, pressure gradient = 0.0634846
GAMG:  Solving for p, Initial residual = 0.0638432, Final residual = 0.000508533, No Iterations 3
time step continuity errors : sum local = 1.81726e-05, global = -1.95114e-17, cumulative = 4.97096e-18
Pressure gradient source: uncorrected Ubar = 1, pressure gradient = 0.057569
smoothSolver:  Solving for epsilon, Initial residual = 0.0533007, Final residual = 0.00370981, No Iterations 6
smoothSolver:  Solving for k, Initial residual = 0.136149, Final residual = 0.0101749, No Iterations 6
ExecutionTime = 0.16 s  ClockTime = 0 s

forceCoeffs forceCoeffs1 write:
    Coefficient	Total	Pressure	Viscous	Internal
    Cd:	0.000337917	0.000337917	0	0

    writing force and moment coefficient files.

runTimeControl runTimeControl1 output:
    runTimeControl: condition1 averages:
        CdMean: 0.00018486, delta: 0.000153057

    Conditions not met

Time = 21

smoothSolver:  Solving for Ux, Initial residual = 0.00561754, Final residual = 0.000423568, No Iterations 6
smoothSolver:  Solving for Uy, Initial residual = 0.160407, Final residual = 0.0139388, No Iterations 4
Pressure gradient source: uncorrected Ubar = 0.999949, pressure gradient = 0.0634221
GAMG:  Solving for p, Initial residual = 0.0628611, Final residual = 0.000441015, No Iterations 3
time step continuity errors : sum local = 1.43152e-05, global = 7.65096e-17, cumulative = 8.14805e-17
Pressure gradient source: uncorrected Ubar = 1, pressure gradient = 0.0573775
smoothSolver:  Solving for epsilon, Initial residual = 0.0519994, Final residual = 0.00364702, No Iterations 6
smoothSolver:  Solving for k, Initial residual = 0.130161, Final residual = 0.009786, No Iterations 6
ExecutionTime = 0.16 s  ClockTime = 0 s

forceCoeffs forceCoeffs1 write:
    Coefficient	Total	Pressure	Viscous	Internal
    Cd:	0.000358243	0.000358243	0	0

    writing force and moment coefficient files.

runTimeControl runTimeControl1 output:
    runTimeControl: condition1 averages:
        CdMean: 0.000193117, delta: 0.000165126

    Conditions not met

Time = 22

smoothSolver:  Solving for Ux, Initial residual = 0.00554321, Final residual = 0.000418539, No Iterations 6
smoothSolver:  Solving for Uy, Initial residual = 0.157827, Final residual = 0.0144732, No Iterations 4
Pressure gradient source: uncorrected Ubar = 0.999943, pressure gradient = 0.0640102
GAMG:  Solving for p, Initial residual = 0.0619124, Final residual = 0.00051044, No Iterations 3
time step continuity errors : sum local = 1.46427e-05, global = 3.37562e-18, cumulative = 8.48562e-17
Pressure gradient source: uncorrected Ubar = 1, pressure gradient = 0.0573017
smoothSolver:  Solving for epsilon, Initial residual = 0.0510302, Final residual = 0.00360333, No Iterations 6
smoothSolver:  Solving for k, Initial residual = 0.123285, Final residual = 0.00938359, No Iterations 6
ExecutionTime = 0.16 s  ClockTime = 0 s

forceCoeffs forceCoeffs1 write:
    Coefficient	Total	Pressure	Viscous	Internal
    Cd:	0.00037922	0.00037922	0	0

    writing force and moment coefficient files.

runTimeControl runTimeControl1 output:
    runTimeControl: condition1 averages:
        CdMean: 0.000201576, delta: 0.000177644

    Conditions not met

Time = 23

smoothSolver:  Solving for Ux, Initial residual = 0.0054683, Final residual = 0.000413282, No Iterations 6
smoothSolver:  Solving for Uy, Initial residual = 0.148829, Final residual = 0.0135768, No Iterations 4
Pressure gradient source: uncorrected Ubar = 0.999953, pressure gradient = 0.0627373
GAMG:  Solving for p, Initial residual = 0.0611313, Final residual = 0.000493949, No Iterations 4
time step continuity errors : sum local = 1.2146e-05, global = 9.72367e-17, cumulative = 1.82093e-16
Pressure gradient source: uncorrected Ubar = 1, pressure gradient = 0.0570834
smoothSolver:  Solving for epsilon, Initial residual = 0.0499824, Final residual = 0.0035517, No Iterations 6
smoothSolver:  Solving for k, Initial residual = 0.11558, Final residual = 0.008854, No Iterations 6
ExecutionTime = 0.17 s  ClockTime = 0 s

forceCoeffs forceCoeffs1 write:
    Coefficient	Total	Pressure	Viscous	Internal
    Cd:	0.000400816	0.000400816	0	0

    writing force and moment coefficient files.

runTimeControl runTimeControl1 output:
    runTimeControl: condition1 averages:
        CdMean: 0.000210239, delta: 0.000190577

    Conditions not met

Time = 24

smoothSolver:  Solving for Ux, Initial residual = 0.00539877, Final residual = 0.000408196, No Iterations 6
smoothSolver:  Solving for Uy, Initial residual = 0.143857, Final residual = 0.012509, No Iterations 4
Pressure gradient source: uncorrected Ubar = 0.999951, pressure gradient = 0.0628147
GAMG:  Solving for p, Initial residual = 0.0610328, Final residual = 0.000462834, No Iterations 3
time step continuity errors : sum local = 1.00267e-05, global = -3.18057e-17, cumulative = 1.50287e-16
Pressure gradient source: uncorrected Ubar = 1, pressure gradient = 0.0569226
smoothSolver:  Solving for epsilon, Initial residual = 0.0490369, Final residual = 0.00350373, No Iterations 6
smoothSolver:  Solving for k, Initial residual = 0.107333, Final residual = 0.0083448, No Iterations 6
ExecutionTime = 0.18 s  ClockTime = 0 s

forceCoeffs forceCoeffs1 write:
    Coefficient	Total	Pressure	Viscous	Internal
    Cd:	0.000423044	0.000423044	0	0

    writing force and moment coefficient files.

runTimeControl runTimeControl1 output:
    runTimeControl: condition1 averages:
        CdMean: 0.000219105, delta: 0.000203939

    Conditions not met

Time = 25

smoothSolver:  Solving for Ux, Initial residual = 0.00533232, Final residual = 0.000403618, No Iterations 6
smoothSolver:  Solving for Uy, Initial residual = 0.132199, Final residual = 0.0122477, No Iterations 4
Pressure gradient source: uncorrected Ubar = 0.999949, pressure gradient = 0.0629183
GAMG:  Solving for p, Initial residual = 0.0572337, Final residual = 0.000479752, No Iterations 4
time step continuity errors : sum local = 9.58716e-06, global = -7.99162e-18, cumulative = 1.42296e-16
Pressure gradient source: uncorrected Ubar = 1, pressure gradient = 0.0568165
smoothSolver:  Solving for epsilon, Initial residual = 0.048181, Final residual = 0.0034653, No Iterations 6
smoothSolver:  Solving for k, Initial residual = 0.0987785, Final residual = 0.00762558, No Iterations 6
ExecutionTime = 0.18 s  ClockTime = 0 s

forceCoeffs forceCoeffs1 write:
    Coefficient	Total	Pressure	Viscous	Internal
    Cd:	0.000445911	0.000445911	0	0

    writing force and moment coefficient files.

runTimeControl runTimeControl1 output:
    runTimeControl: condition1 averages:
        CdMean: 0.000228178, delta: 0.000217734

    Conditions not met

Time = 26

smoothSolver:  Solving for Ux, Initial residual = 0.00526525, Final residual = 0.000399007, No Iterations 6
smoothSolver:  Solving for Uy, Initial residual = 0.126552, Final residual = 0.0115696, No Iterations 4
Pressure gradient source: uncorrected Ubar = 0.999952, pressure gradient = 0.0623852
GAMG:  Solving for p, Initial residual = 0.0566979, Final residual = 0.000414748, No Iterations 3
time step continuity errors : sum local = 7.75376e-06, global = -4.38848e-17, cumulative = 9.84108e-17
Pressure gradient source: uncorrected Ubar = 1, pressure gradient = 0.0566765
smoothSolver:  Solving for epsilon, Initial residual = 0.0475644, Final residual = 0.00343931, No Iterations 6
smoothSolver:  Solving for k, Initial residual = 0.0898657, Final residual = 0.00705956, No Iterations 6
ExecutionTime = 0.18 s  ClockTime = 0 s

forceCoeffs forceCoeffs1 write:
    Coefficient	Total	Pressure	Viscous	Internal
    Cd:	0.000469409	0.000469409	0	0

    writing force and moment coefficient files.

runTimeControl runTimeControl1 output:
    runTimeControl: condition1 averages:
        CdMean: 0.000237456, delta: 0.000231953

    Conditions not met

Time = 27

smoothSolver:  Solving for Ux, Initial residual = 0.00519633, Final residual = 0.00039407, No Iterations 6
smoothSolver:  Solving for Uy, Initial residual = 0.12216, Final residual = 0.0113581, No Iterations 4
Pressure gradient source: uncorrected Ubar = 0.999961, pressure gradient = 0.0612789
GAMG:  Solving for p, Initial residual = 0.0553332, Final residual = 0.00042817, No Iterations 4
time step continuity errors : sum local = 6.99306e-06, global = -3.18539e-17, cumulative = 6.6557e-17
Pressure gradient source: uncorrected Ubar = 1, pressure gradient = 0.0564323
smoothSolver:  Solving for epsilon, Initial residual = 0.0467417, Final residual = 0.00339727, No Iterations 6
smoothSolver:  Solving for k, Initial residual = 0.0817361, Final residual = 0.0064106, No Iterations 6
ExecutionTime = 0.19 s  ClockTime = 0 s

forceCoeffs forceCoeffs1 write:
    Coefficient	Total	Pressure	Viscous	Internal
    Cd:	0.000493523	0.000493523	0	0

    writing force and moment coefficient files.

runTimeControl runTimeControl1 output:
    runTimeControl: condition1 averages:
        CdMean: 0.00024694, delta: 0.000246583

    Conditions not met

Time = 28

smoothSolver:  Solving for Ux, Initial residual = 0.00513391, Final residual = 0.000389718, No Iterations 6
smoothSolver:  Solving for Uy, Initial residual = 0.121455, Final residual = 0.0118305, No Iterations 4
Pressure gradient source: uncorrected Ubar = 0.999955, pressure gradient = 0.0617689
GAMG:  Solving for p, Initial residual = 0.0568572, Final residual = 0.000376581, No Iterations 3
time step continuity errors : sum local = 5.56254e-06, global = 1.94803e-17, cumulative = 8.60373e-17
Pressure gradient source: uncorrected Ubar = 1, pressure gradient = 0.056302
smoothSolver:  Solving for epsilon, Initial residual = 0.045722, Final residual = 0.00333836, No Iterations 6
smoothSolver:  Solving for k, Initial residual = 0.0740046, Final residual = 0.00586205, No Iterations 6
ExecutionTime = 0.19 s  ClockTime = 0 s

forceCoeffs forceCoeffs1 write:
    Coefficient	Total	Pressure	Viscous	Internal
    Cd:	0.000518285	0.000518285	0	0

    writing force and moment coefficient files.

runTimeControl runTimeControl1 output:
    runTimeControl: condition1 averages:
        CdMean: 0.000256631, delta: 0.000261655

    Conditions not met

Time = 29

smoothSolver:  Solving for Ux, Initial residual = 0.00507293, Final residual = 0.000385544, No Iterations 6
smoothSolver:  Solving for Uy, Initial residual = 0.122013, Final residual = 0.0119044, No Iterations 4
Pressure gradient source: uncorrected Ubar = 0.999956, pressure gradient = 0.0614539
GAMG:  Solving for p, Initial residual = 0.0571579, Final residual = 0.000568075, No Iterations 3
time step continuity errors : sum local = 7.42124e-06, global = 1.47608e-17, cumulative = 1.00798e-16
Pressure gradient source: uncorrected Ubar = 1, pressure gradient = 0.0561677
smoothSolver:  Solving for epsilon, Initial residual = 0.0453206, Final residual = 0.00332555, No Iterations 6
smoothSolver:  Solving for k, Initial residual = 0.067207, Final residual = 0.00532614, No Iterations 6
ExecutionTime = 0.2 s  ClockTime = 0 s

forceCoeffs forceCoeffs1 write:
    Coefficient	Total	Pressure	Viscous	Internal
    Cd:	0.000543693	0.000543693	0	0

    writing force and moment coefficient files.

runTimeControl runTimeControl1 output:
    runTimeControl: condition1 averages:
        CdMean: 0.000266529, delta: 0.000277163

    Conditions not met

Time = 30

smoothSolver:  Solving for Ux, Initial residual = 0.00501069, Final residual = 0.000381294, No Iterations 6
smoothSolver:  Solving for Uy, Initial residual = 0.115738, Final residual = 0.0113236, No Iterations 4
Pressure gradient source: uncorrected Ubar = 0.999959, pressure gradient = 0.0609826
GAMG:  Solving for p, Initial residual = 0.0552086, Final residual = 0.000432564, No Iterations 4
time step continuity errors : sum local = 5.12288e-06, global = 3.24754e-18, cumulative = 1.04046e-16
Pressure gradient source: uncorrected Ubar = 1, pressure gradient = 0.0560092
smoothSolver:  Solving for epsilon, Initial residual = 0.0444619, Final residual = 0.00327798, No Iterations 6
smoothSolver:  Solving for k, Initial residual = 0.0612252, Final residual = 0.00487744, No Iterations 6
ExecutionTime = 0.2 s  ClockTime = 0 s

forceCoeffs forceCoeffs1 write:
    Coefficient	Total	Pressure	Viscous	Internal
    Cd:	0.000569741	0.000569741	0	0

    writing force and moment coefficient files.

runTimeControl runTimeControl1 output:
    runTimeControl: condition1 averages:
        CdMean: 0.000276636, delta: 0.000293104

    Conditions not met

Time = 31

smoothSolver:  Solving for Ux, Initial residual = 0.00495007, Final residual = 0.000377152, No Iterations 6
smoothSolver:  Solving for Uy, Initial residual = 0.118376, Final residual = 0.00775956, No Iterations 5
Pressure gradient source: uncorrected Ubar = 0.99996, pressure gradient = 0.0607411
GAMG:  Solving for p, Initial residual = 0.0570866, Final residual = 0.000492365, No Iterations 4
time step continuity errors : sum local = 5.23549e-06, global = 4.08847e-17, cumulative = 1.4493e-16
Pressure gradient source: uncorrected Ubar = 1, pressure gradient = 0.0558586
smoothSolver:  Solving for epsilon, Initial residual = 0.0439612, Final residual = 0.00325704, No Iterations 6
smoothSolver:  Solving for k, Initial residual = 0.0561441, Final residual = 0.00451033, No Iterations 6
ExecutionTime = 0.21 s  ClockTime = 0 s

forceCoeffs forceCoeffs1 write:
    Coefficient	Total	Pressure	Viscous	Internal
    Cd:	0.000596431	0.000596431	0	0

    writing force and moment coefficient files.

runTimeControl runTimeControl1 output:
    runTimeControl: condition1 averages:
        CdMean: 0.000286952, delta: 0.000309478

    Conditions not met

Time = 32

smoothSolver:  Solving for Ux, Initial residual = 0.00488424, Final residual = 0.000372568, No Iterations 6
smoothSolver:  Solving for Uy, Initial residual = 0.108597, Final residual = 0.0104369, No Iterations 4
Pressure gradient source: uncorrected Ubar = 0.999967, pressure gradient = 0.0597083
GAMG:  Solving for p, Initial residual = 0.0564189, Final residual = 0.000491177, No Iterations 4
time step continuity errors : sum local = 4.6876e-06, global = 5.50866e-17, cumulative = 2.00017e-16
Pressure gradient source: uncorrected Ubar = 1, pressure gradient = 0.0556149
smoothSolver:  Solving for epsilon, Initial residual = 0.0426587, Final residual = 0.00317193, No Iterations 6
smoothSolver:  Solving for k, Initial residual = 0.0516696, Final residual = 0.00410631, No Iterations 6
ExecutionTime = 0.21 s  ClockTime = 0 s

forceCoeffs forceCoeffs1 write:
    Coefficient	Total	Pressure	Viscous	Internal
    Cd:	0.000623735	0.000623735	0	0

    writing force and moment coefficient files.

runTimeControl runTimeControl1 output:
    runTimeControl: condition1 averages:
        CdMean: 0.000297477, delta: 0.000326258

    Conditions not met

Time = 33

smoothSolver:  Solving for Ux, Initial residual = 0.00482718, Final residual = 0.000368797, No Iterations 6
smoothSolver:  Solving for Uy, Initial residual = 0.110783, Final residual = 0.0105398, No Iterations 4
Pressure gradient source: uncorrected Ubar = 0.999958, pressure gradient = 0.0606285
GAMG:  Solving for p, Initial residual = 0.05784, Final residual = 0.00052102, No Iterations 4
time step continuity errors : sum local = 4.45858e-06, global = -5.13822e-17, cumulative = 1.48635e-16
Pressure gradient source: uncorrected Ubar = 1, pressure gradient = 0.0555434
smoothSolver:  Solving for epsilon, Initial residual = 0.0421107, Final residual = 0.00313898, No Iterations 6
smoothSolver:  Solving for k, Initial residual = 0.0477757, Final residual = 0.00384328, No Iterations 6
ExecutionTime = 0.22 s  ClockTime = 0 s

forceCoeffs forceCoeffs1 write:
    Coefficient	Total	Pressure	Viscous	Internal
    Cd:	0.000651684	0.000651684	0	0

    writing force and moment coefficient files.

runTimeControl runTimeControl1 output:
    runTimeControl: condition1 averages:
        CdMean: 0.00030821, delta: 0.000343474

    Conditions not met

Time = 34

smoothSolver:  Solving for Ux, Initial residual = 0.00476833, Final residual = 0.000364966, No Iterations 6
smoothSolver:  Solving for Uy, Initial residual = 0.100808, Final residual = 0.00930641, No Iterations 4
Pressure gradient source: uncorrected Ubar = 0.999962, pressure gradient = 0.0600413
GAMG:  Solving for p, Initial residual = 0.0562611, Final residual = 0.000344401, No Iterations 4
time step continuity errors : sum local = 2.64383e-06, global = 4.42643e-18, cumulative = 1.53061e-16
Pressure gradient source: uncorrected Ubar = 1, pressure gradient = 0.0554242
smoothSolver:  Solving for epsilon, Initial residual = 0.0409067, Final residual = 0.00306052, No Iterations 6
smoothSolver:  Solving for k, Initial residual = 0.0443183, Final residual = 0.00355411, No Iterations 6
ExecutionTime = 0.22 s  ClockTime = 0 s

forceCoeffs forceCoeffs1 write:
    Coefficient	Total	Pressure	Viscous	Internal
    Cd:	0.000680226	0.000680226	0	0

    writing force and moment coefficient files.

runTimeControl runTimeControl1 output:
    runTimeControl: condition1 averages:
        CdMean: 0.000319152, delta: 0.000361074

    Conditions not met

Time = 35

smoothSolver:  Solving for Ux, Initial residual = 0.00471261, Final residual = 0.000361391, No Iterations 6
smoothSolver:  Solving for Uy, Initial residual = 0.101312, Final residual = 0.00929481, No Iterations 4
Pressure gradient source: uncorrected Ubar = 0.999961, pressure gradient = 0.0600801
GAMG:  Solving for p, Initial residual = 0.0564508, Final residual = 0.000558261, No Iterations 3
time step continuity errors : sum local = 3.76644e-06, global = 3.26485e-17, cumulative = 1.8571e-16
Pressure gradient source: uncorrected Ubar = 1, pressure gradient = 0.0553463
smoothSolver:  Solving for epsilon, Initial residual = 0.0404669, Final residual = 0.00303799, No Iterations 6
smoothSolver:  Solving for k, Initial residual = 0.0412521, Final residual = 0.00331629, No Iterations 6
ExecutionTime = 0.24 s  ClockTime = 0 s

forceCoeffs forceCoeffs1 write:
    Coefficient	Total	Pressure	Viscous	Internal
    Cd:	0.000709342	0.000709342	0	0

    writing force and moment coefficient files.

runTimeControl runTimeControl1 output:
    runTimeControl: condition1 averages:
        CdMean: 0.0003303, delta: 0.000379041

    Conditions not met

Time = 36

smoothSolver:  Solving for Ux, Initial residual = 0.00465638, Final residual = 0.000357804, No Iterations 6
smoothSolver:  Solving for Uy, Initial residual = 0.0981944, Final residual = 0.00663464, No Iterations 5
Pressure gradient source: uncorrected Ubar = 0.999963, pressure gradient = 0.0597143
GAMG:  Solving for p, Initial residual = 0.0571773, Final residual = 0.000346828, No Iterations 4
time step continuity errors : sum local = 2.15508e-06, global = 1.85363e-17, cumulative = 2.04246e-16
Pressure gradient source: uncorrected Ubar = 1, pressure gradient = 0.0552494
smoothSolver:  Solving for epsilon, Initial residual = 0.03928, Final residual = 0.00295979, No Iterations 6
smoothSolver:  Solving for k, Initial residual = 0.0385516, Final residual = 0.00310761, No Iterations 6
ExecutionTime = 0.24 s  ClockTime = 0 s

forceCoeffs forceCoeffs1 write:
    Coefficient	Total	Pressure	Viscous	Internal
    Cd:	0.000738985	0.000738985	0	0

    writing force and moment coefficient files.

runTimeControl runTimeControl1 output:
    runTimeControl: condition1 averages:
        CdMean: 0.000341653, delta: 0.000397332

    Conditions not met

Time = 37

smoothSolver:  Solving for Ux, Initial residual = 0.00460387, Final residual = 0.000354415, No Iterations 6
smoothSolver:  Solving for Uy, Initial residual = 0.100513, Final residual = 0.0100371, No Iterations 4
Pressure gradient source: uncorrected Ubar = 0.999963, pressure gradient = 0.0595605
GAMG:  Solving for p, Initial residual = 0.0583081, Final residual = 0.000349786, No Iterations 4
time step continuity errors : sum local = 1.97738e-06, global = -9.71841e-18, cumulative = 1.94528e-16
Pressure gradient source: uncorrected Ubar = 1, pressure gradient = 0.0551639
smoothSolver:  Solving for epsilon, Initial residual = 0.0386642, Final residual = 0.00292948, No Iterations 6
smoothSolver:  Solving for k, Initial residual = 0.0361179, Final residual = 0.00292318, No Iterations 6
ExecutionTime = 0.25 s  ClockTime = 0 s

forceCoeffs forceCoeffs1 write:
    Coefficient	Total	Pressure	Viscous	Internal
    Cd:	0.000769114	0.000769114	0	0

    writing force and moment coefficient files.

runTimeControl runTimeControl1 output:
    runTimeControl: condition1 averages:
        CdMean: 0.000353206, delta: 0.000415909

    Conditions not met

Time = 38

smoothSolver:  Solving for Ux, Initial residual = 0.00455018, Final residual = 0.000350915, No Iterations 6
smoothSolver:  Solving for Uy, Initial residual = 0.0943763, Final residual = 0.00656569, No Iterations 5
Pressure gradient source: uncorrected Ubar = 0.999966, pressure gradient = 0.0591271
GAMG:  Solving for p, Initial residual = 0.05748, Final residual = 0.000350424, No Iterations 4
time step continuity errors : sum local = 1.81073e-06, global = -3.17342e-17, cumulative = 1.62793e-16
Pressure gradient source: uncorrected Ubar = 1, pressure gradient = 0.055051
smoothSolver:  Solving for epsilon, Initial residual = 0.0375489, Final residual = 0.00284601, No Iterations 6
smoothSolver:  Solving for k, Initial residual = 0.0340174, Final residual = 0.00276761, No Iterations 6
ExecutionTime = 0.25 s  ClockTime = 0 s

forceCoeffs forceCoeffs1 write:
    Coefficient	Total	Pressure	Viscous	Internal
    Cd:	0.000799671	0.000799671	0	0

    writing force and moment coefficient files.

runTimeControl runTimeControl1 output:
    runTimeControl: condition1 averages:
        CdMean: 0.000364955, delta: 0.000434716

    Conditions not met

Time = 39

smoothSolver:  Solving for Ux, Initial residual = 0.00449483, Final residual = 0.000347394, No Iterations 6
smoothSolver:  Solving for Uy, Initial residual = 0.0967998, Final residual = 0.00634699, No Iterations 5
Pressure gradient source: uncorrected Ubar = 0.999969, pressure gradient = 0.0587689
GAMG:  Solving for p, Initial residual = 0.0607236, Final residual = 0.000525163, No Iterations 4
time step continuity errors : sum local = 2.42596e-06, global = -2.49531e-18, cumulative = 1.60298e-16
Pressure gradient source: uncorrected Ubar = 1, pressure gradient = 0.0549243
smoothSolver:  Solving for epsilon, Initial residual = 0.0364727, Final residual = 0.00276226, No Iterations 6
smoothSolver:  Solving for k, Initial residual = 0.0321391, Final residual = 0.00260831, No Iterations 6
ExecutionTime = 0.25 s  ClockTime = 0 s

forceCoeffs forceCoeffs1 write:
    Coefficient	Total	Pressure	Viscous	Internal
    Cd:	0.000830599	0.000830599	0	0

    writing force and moment coefficient files.

runTimeControl runTimeControl1 output:
    runTimeControl: condition1 averages:
        CdMean: 0.000376894, delta: 0.000453705

    Conditions not met

Time = 40

smoothSolver:  Solving for Ux, Initial residual = 0.00444183, Final residual = 0.000343902, No Iterations 6
smoothSolver:  Solving for Uy, Initial residual = 0.0921138, Final residual = 0.00644673, No Iterations 5
Pressure gradient source: uncorrected Ubar = 0.999969, pressure gradient = 0.0585472
GAMG:  Solving for p, Initial residual = 0.0575851, Final residual = 0.000273874, No Iterations 5
time step continuity errors : sum local = 1.18613e-06, global = -2.35571e-17, cumulative = 1.36741e-16
Pressure gradient source: uncorrected Ubar = 1, pressure gradient = 0.0548028
smoothSolver:  Solving for epsilon, Initial residual = 0.0355692, Final residual = 0.0026927, No Iterations 6
smoothSolver:  Solving for k, Initial residual = 0.0304315, Final residual = 0.00250005, No Iterations 6
ExecutionTime = 0.26 s  ClockTime = 0 s

forceCoeffs forceCoeffs1 write:
    Coefficient	Total	Pressure	Viscous	Internal
    Cd:	0.000861841	0.000861841	0	0

    writing force and moment coefficient files.

runTimeControl runTimeControl1 output:
    runTimeControl: condition1 averages:
        CdMean: 0.000389018, delta: 0.000472823

    Conditions not met

Time = 41

smoothSolver:  Solving for Ux, Initial residual = 0.00438805, Final residual = 0.00034051, No Iterations 6
smoothSolver:  Solving for Uy, Initial residual = 0.0889354, Final residual = 0.00816394, No Iterations 4
Pressure gradient source: uncorrected Ubar = 0.999971, pressure gradient = 0.058254
GAMG:  Solving for p, Initial residual = 0.0583266, Final residual = 0.000463785, No Iterations 4
time step continuity errors : sum local = 1.70775e-06, global = -2.95843e-17, cumulative = 1.07157e-16
Pressure gradient source: uncorrected Ubar = 1, pressure gradient = 0.0546761
smoothSolver:  Solving for epsilon, Initial residual = 0.0345908, Final residual = 0.00261563, No Iterations 6
smoothSolver:  Solving for k, Initial residual = 0.0289364, Final residual = 0.00235306, No Iterations 6
ExecutionTime = 0.26 s  ClockTime = 0 s

forceCoeffs forceCoeffs1 write:
    Coefficient	Total	Pressure	Viscous	Internal
    Cd:	0.000893331	0.000893331	0	0

    writing force and moment coefficient files.

runTimeControl runTimeControl1 output:
    runTimeControl: condition1 averages:
        CdMean: 0.000401318, delta: 0.000492013

    Conditions not met

Time = 42

smoothSolver:  Solving for Ux, Initial residual = 0.00433717, Final residual = 0.000337242, No Iterations 6
smoothSolver:  Solving for Uy, Initial residual = 0.0874349, Final residual = 0.00859194, No Iterations 4
Pressure gradient source: uncorrected Ubar = 0.999971, pressure gradient = 0.0581037
GAMG:  Solving for p, Initial residual = 0.0604043, Final residual = 0.000379823, No Iterations 4
time step continuity errors : sum local = 1.26292e-06, global = 3.45472e-19, cumulative = 1.07502e-16
Pressure gradient source: uncorrected Ubar = 1, pressure gradient = 0.0545632
smoothSolver:  Solving for epsilon, Initial residual = 0.0337055, Final residual = 0.00255361, No Iterations 6
smoothSolver:  Solving for k, Initial residual = 0.0275056, Final residual = 0.00226588, No Iterations 6
ExecutionTime = 0.27 s  ClockTime = 0 s

forceCoeffs forceCoeffs1 write:
    Coefficient	Total	Pressure	Viscous	Internal
    Cd:	0.000925008	0.000925008	0	0

    writing force and moment coefficient files.

runTimeControl runTimeControl1 output:
    runTimeControl: condition1 averages:
        CdMean: 0.000413787, delta: 0.00051122

    Conditions not met

Time = 43

smoothSolver:  Solving for Ux, Initial residual = 0.00428893, Final residual = 0.000334163, No Iterations 6
smoothSolver:  Solving for Uy, Initial residual = 0.0930673, Final residual = 0.00850207, No Iterations 4
Pressure gradient source: uncorrected Ubar = 0.999971, pressure gradient = 0.0579345
GAMG:  Solving for p, Initial residual = 0.062143, Final residual = 0.000453618, No Iterations 4
time step continuity errors : sum local = 1.35564e-06, global = 1.90404e-17, cumulative = 1.26543e-16
Pressure gradient source: uncorrected Ubar = 1, pressure gradient = 0.0544595
smoothSolver:  Solving for epsilon, Initial residual = 0.0326814, Final residual = 0.00246715, No Iterations 6
smoothSolver:  Solving for k, Initial residual = 0.0262795, Final residual = 0.00213323, No Iterations 6
ExecutionTime = 0.27 s  ClockTime = 0 s

forceCoeffs forceCoeffs1 write:
    Coefficient	Total	Pressure	Viscous	Internal
    Cd:	0.000956803	0.000956803	0	0

    writing force and moment coefficient files.

runTimeControl runTimeControl1 output:
    runTimeControl: condition1 averages:
        CdMean: 0.000426415, delta: 0.000530388

    Conditions not met

Time = 44

smoothSolver:  Solving for Ux, Initial residual = 0.00424083, Final residual = 0.000331133, No Iterations 6
smoothSolver:  Solving for Uy, Initial residual = 0.0927273, Final residual = 0.00881363, No Iterations 4
Pressure gradient source: uncorrected Ubar = 0.999973, pressure gradient = 0.0576892
GAMG:  Solving for p, Initial residual = 0.062664, Final residual = 0.000469666, No Iterations 4
time step continuity errors : sum local = 1.28397e-06, global = 2.4258e-17, cumulative = 1.50801e-16
Pressure gradient source: uncorrected Ubar = 1, pressure gradient = 0.0543538
smoothSolver:  Solving for epsilon, Initial residual = 0.0315448, Final residual = 0.00237574, No Iterations 6
smoothSolver:  Solving for k, Initial residual = 0.0251399, Final residual = 0.00207495, No Iterations 6
ExecutionTime = 0.28 s  ClockTime = 0 s

forceCoeffs forceCoeffs1 write:
    Coefficient	Total	Pressure	Viscous	Internal
    Cd:	0.000988648	0.000988648	0	0

    writing force and moment coefficient files.

runTimeControl runTimeControl1 output:
    runTimeControl: condition1 averages:
        CdMean: 0.000439193, delta: 0.000549455

    Conditions not met

Time = 45

smoothSolver:  Solving for Ux, Initial residual = 0.00419204, Final residual = 0.000328157, No Iterations 6
smoothSolver:  Solving for Uy, Initial residual = 0.0870828, Final residual = 0.00784096, No Iterations 4
Pressure gradient source: uncorrected Ubar = 0.999974, pressure gradient = 0.0574344
GAMG:  Solving for p, Initial residual = 0.0646278, Final residual = 0.000561873, No Iterations 4
time step continuity errors : sum local = 1.41525e-06, global = 4.06594e-17, cumulative = 1.9146e-16
Pressure gradient source: uncorrected Ubar = 1, pressure gradient = 0.0542449
smoothSolver:  Solving for epsilon, Initial residual = 0.03065, Final residual = 0.0023093, No Iterations 6
smoothSolver:  Solving for k, Initial residual = 0.0240809, Final residual = 0.00196023, No Iterations 6
ExecutionTime = 0.28 s  ClockTime = 0 s

forceCoeffs forceCoeffs1 write:
    Coefficient	Total	Pressure	Viscous	Internal
    Cd:	0.00102047	0.00102047	0	0

    writing force and moment coefficient files.

runTimeControl runTimeControl1 output:
    runTimeControl: condition1 averages:
        CdMean: 0.000452111, delta: 0.000568363

    Conditions not met

Time = 46

smoothSolver:  Solving for Ux, Initial residual = 0.00414423, Final residual = 0.000325101, No Iterations 6
smoothSolver:  Solving for Uy, Initial residual = 0.0832358, Final residual = 0.00718379, No Iterations 4
Pressure gradient source: uncorrected Ubar = 0.999976, pressure gradient = 0.057064
GAMG:  Solving for p, Initial residual = 0.06493, Final residual = 0.000444812, No Iterations 4
time step continuity errors : sum local = 1.04766e-06, global = -2.53255e-17, cumulative = 1.66134e-16
Pressure gradient source: uncorrected Ubar = 1, pressure gradient = 0.0541169
smoothSolver:  Solving for epsilon, Initial residual = 0.0294227, Final residual = 0.0022113, No Iterations 6
smoothSolver:  Solving for k, Initial residual = 0.0231316, Final residual = 0.00191969, No Iterations 6
ExecutionTime = 0.3 s  ClockTime = 0 s

forceCoeffs forceCoeffs1 write:
    Coefficient	Total	Pressure	Viscous	Internal
    Cd:	0.00105221	0.00105221	0	0

    writing force and moment coefficient files.

runTimeControl runTimeControl1 output:
    runTimeControl: condition1 averages:
        CdMean: 0.000465156, delta: 0.000587053

    Conditions not met

Time = 47

smoothSolver:  Solving for Ux, Initial residual = 0.00409786, Final residual = 0.00032221, No Iterations 6
smoothSolver:  Solving for Uy, Initial residual = 0.0871931, Final residual = 0.00785514, No Iterations 4
Pressure gradient source: uncorrected Ubar = 0.999976, pressure gradient = 0.0568787
GAMG:  Solving for p, Initial residual = 0.0658267, Final residual = 0.000451275, No Iterations 4
time step continuity errors : sum local = 9.81207e-07, global = 1.27448e-17, cumulative = 1.78879e-16
Pressure gradient source: uncorrected Ubar = 1, pressure gradient = 0.053996
smoothSolver:  Solving for epsilon, Initial residual = 0.0281338, Final residual = 0.00210755, No Iterations 6
smoothSolver:  Solving for k, Initial residual = 0.022309, Final residual = 0.0018156, No Iterations 6
ExecutionTime = 0.3 s  ClockTime = 0 s

forceCoeffs forceCoeffs1 write:
    Coefficient	Total	Pressure	Viscous	Internal
    Cd:	0.0010838	0.0010838	0	0

    writing force and moment coefficient files.

runTimeControl runTimeControl1 output:
    runTimeControl: condition1 averages:
        CdMean: 0.000478319, delta: 0.000605478

    Conditions not met

Time = 48

smoothSolver:  Solving for Ux, Initial residual = 0.00405384, Final residual = 0.00031952, No Iterations 6
smoothSolver:  Solving for Uy, Initial residual = 0.0861976, Final residual = 0.00713948, No Iterations 4
Pressure gradient source: uncorrected Ubar = 0.999976, pressure gradient = 0.0568098
GAMG:  Solving for p, Initial residual = 0.0690545, Final residual = 0.00048128, No Iterations 4
time step continuity errors : sum local = 9.47271e-07, global = 5.53249e-17, cumulative = 2.34204e-16
Pressure gradient source: uncorrected Ubar = 1, pressure gradient = 0.0538969
smoothSolver:  Solving for epsilon, Initial residual = 0.0273094, Final residual = 0.00204975, No Iterations 6
smoothSolver:  Solving for k, Initial residual = 0.0215223, Final residual = 0.00178178, No Iterations 6
ExecutionTime = 0.31 s  ClockTime = 0 s

forceCoeffs forceCoeffs1 write:
    Coefficient	Total	Pressure	Viscous	Internal
    Cd:	0.00111517	0.00111517	0	0

    writing force and moment coefficient files.

runTimeControl runTimeControl1 output:
    runTimeControl: condition1 averages:
        CdMean: 0.000491587, delta: 0.000623587

    Conditions not met

Time = 49

smoothSolver:  Solving for Ux, Initial residual = 0.00401066, Final residual = 0.000316918, No Iterations 6
smoothSolver:  Solving for Uy, Initial residual = 0.0882223, Final residual = 0.0064788, No Iterations 4
Pressure gradient source: uncorrected Ubar = 0.999978, pressure gradient = 0.0565151
GAMG:  Solving for p, Initial residual = 0.0668812, Final residual = 0.000489374, No Iterations 4
time step continuity errors : sum local = 8.8733e-07, global = -4.69432e-18, cumulative = 2.2951e-16
Pressure gradient source: uncorrected Ubar = 1, pressure gradient = 0.0537864
smoothSolver:  Solving for epsilon, Initial residual = 0.026168, Final residual = 0.00195456, No Iterations 6
smoothSolver:  Solving for k, Initial residual = 0.0207619, Final residual = 0.00169893, No Iterations 6
ExecutionTime = 0.31 s  ClockTime = 0 s

forceCoeffs forceCoeffs1 write:
    Coefficient	Total	Pressure	Viscous	Internal
    Cd:	0.00114627	0.00114627	0	0

    writing force and moment coefficient files.

runTimeControl runTimeControl1 output:
    runTimeControl: condition1 averages:
        CdMean: 0.000504948, delta: 0.000641325

    Conditions not met

Time = 50

smoothSolver:  Solving for Ux, Initial residual = 0.00396876, Final residual = 0.000314282, No Iterations 6
smoothSolver:  Solving for Uy, Initial residual = 0.080326, Final residual = 0.00587882, No Iterations 4
Pressure gradient source: uncorrected Ubar = 0.99998, pressure gradient = 0.0561002
GAMG:  Solving for p, Initial residual = 0.0705517, Final residual = 0.000434424, No Iterations 4
time step continuity errors : sum local = 7.36913e-07, global = -1.41073e-17, cumulative = 2.15403e-16
Pressure gradient source: uncorrected Ubar = 1, pressure gradient = 0.0536497
smoothSolver:  Solving for epsilon, Initial residual = 0.0251921, Final residual = 0.00187176, No Iterations 6
smoothSolver:  Solving for k, Initial residual = 0.0200853, Final residual = 0.00166708, No Iterations 6
ExecutionTime = 0.32 s  ClockTime = 0 s

forceCoeffs forceCoeffs1 write:
    Coefficient	Total	Pressure	Viscous	Internal
    Cd:	0.00117703	0.00117703	0	0

    writing force and moment coefficient files.

runTimeControl runTimeControl1 output:
    runTimeControl: condition1 averages:
        CdMean: 0.000518389, delta: 0.000658645

    Conditions not met

Time = 51

smoothSolver:  Solving for Ux, Initial residual = 0.00392741, Final residual = 0.000311706, No Iterations 6
smoothSolver:  Solving for Uy, Initial residual = 0.0832531, Final residual = 0.00640774, No Iterations 4
Pressure gradient source: uncorrected Ubar = 0.999981, pressure gradient = 0.0558041
GAMG:  Solving for p, Initial residual = 0.073812, Final residual = 0.000574147, No Iterations 4
time step continuity errors : sum local = 8.66133e-07, global = -1.36471e-17, cumulative = 2.01756e-16
Pressure gradient source: uncorrected Ubar = 1, pressure gradient = 0.0535056
smoothSolver:  Solving for epsilon, Initial residual = 0.0243315, Final residual = 0.0018002, No Iterations 6
smoothSolver:  Solving for k, Initial residual = 0.0194739, Final residual = 0.00159063, No Iterations 6
ExecutionTime = 0.32 s  ClockTime = 0 s

forceCoeffs forceCoeffs1 write:
    Coefficient	Total	Pressure	Viscous	Internal
    Cd:	0.00120741	0.00120741	0	0

    writing force and moment coefficient files.

runTimeControl runTimeControl1 output:
    runTimeControl: condition1 averages:
        CdMean: 0.0005319, delta: 0.000675507

    Conditions not met

Time = 52

smoothSolver:  Solving for Ux, Initial residual = 0.00388847, Final residual = 0.000309261, No Iterations 6
smoothSolver:  Solving for Uy, Initial residual = 0.0770062, Final residual = 0.00606409, No Iterations 4
Pressure gradient source: uncorrected Ubar = 0.999981, pressure gradient = 0.0556521
GAMG:  Solving for p, Initial residual = 0.0700263, Final residual = 0.00050299, No Iterations 4
time step continuity errors : sum local = 6.82568e-07, global = -6.42368e-18, cumulative = 1.95332e-16
Pressure gradient source: uncorrected Ubar = 1, pressure gradient = 0.0533727
smoothSolver:  Solving for epsilon, Initial residual = 0.0234603, Final residual = 0.00172758, No Iterations 6
smoothSolver:  Solving for k, Initial residual = 0.018908, Final residual = 0.00157236, No Iterations 6
ExecutionTime = 0.33 s  ClockTime = 0 s

forceCoeffs forceCoeffs1 write:
    Coefficient	Total	Pressure	Viscous	Internal
    Cd:	0.00123734	0.00123734	0	0

    writing force and moment coefficient files.

runTimeControl runTimeControl1 output:
    runTimeControl: condition1 averages:
        CdMean: 0.000545466, delta: 0.000691879

    Conditions not met

Time = 53

smoothSolver:  Solving for Ux, Initial residual = 0.00384821, Final residual = 0.000306768, No Iterations 6
smoothSolver:  Solving for Uy, Initial residual = 0.0808258, Final residual = 0.00587443, No Iterations 4
Pressure gradient source: uncorrected Ubar = 0.999984, pressure gradient = 0.0551784
GAMG:  Solving for p, Initial residual = 0.0791414, Final residual = 0.000437462, No Iterations 4
time step continuity errors : sum local = 5.54646e-07, global = 7.56237e-18, cumulative = 2.02894e-16
Pressure gradient source: uncorrected Ubar = 1, pressure gradient = 0.0532076
smoothSolver:  Solving for epsilon, Initial residual = 0.0223645, Final residual = 0.00163086, No Iterations 6
smoothSolver:  Solving for k, Initial residual = 0.0184268, Final residual = 0.00150595, No Iterations 6
ExecutionTime = 0.33 s  ClockTime = 0 s

forceCoeffs forceCoeffs1 write:
    Coefficient	Total	Pressure	Viscous	Internal
    Cd:	0.00126679	0.00126679	0	0

    writing force and moment coefficient files.

runTimeControl runTimeControl1 output:
    runTimeControl: condition1 averages:
        CdMean: 0.000559076, delta: 0.000707714

    Conditions not met

Time = 54

smoothSolver:  Solving for Ux, Initial residual = 0.00381104, Final residual = 0.000304473, No Iterations 6
smoothSolver:  Solving for Uy, Initial residual = 0.0799854, Final residual = 0.00637055, No Iterations 4
Pressure gradient source: uncorrected Ubar = 0.999984, pressure gradient = 0.0550855
GAMG:  Solving for p, Initial residual = 0.0756575, Final residual = 0.00062839, No Iterations 4
time step continuity errors : sum local = 7.57561e-07, global = -1.93593e-17, cumulative = 1.83535e-16
Pressure gradient source: uncorrected Ubar = 1, pressure gradient = 0.0530638
smoothSolver:  Solving for epsilon, Initial residual = 0.0215704, Final residual = 0.00156396, No Iterations 6
smoothSolver:  Solving for k, Initial residual = 0.0179742, Final residual = 0.00148982, No Iterations 6
ExecutionTime = 0.34 s  ClockTime = 0 s

forceCoeffs forceCoeffs1 write:
    Coefficient	Total	Pressure	Viscous	Internal
    Cd:	0.00129572	0.00129572	0	0

    writing force and moment coefficient files.

runTimeControl runTimeControl1 output:
    runTimeControl: condition1 averages:
        CdMean: 0.000572717, delta: 0.000723

    Conditions not met

Time = 55

smoothSolver:  Solving for Ux, Initial residual = 0.00377415, Final residual = 0.000302209, No Iterations 6
smoothSolver:  Solving for Uy, Initial residual = 0.0804272, Final residual = 0.00660554, No Iterations 4
Pressure gradient source: uncorrected Ubar = 0.999986, pressure gradient = 0.0546939
GAMG:  Solving for p, Initial residual = 0.0834336, Final residual = 0.00069644, No Iterations 5
time step continuity errors : sum local = 7.73717e-07, global = 2.58804e-17, cumulative = 2.09415e-16
Pressure gradient source: uncorrected Ubar = 1, pressure gradient = 0.0528994
smoothSolver:  Solving for epsilon, Initial residual = 0.0207294, Final residual = 0.0014985, No Iterations 6
smoothSolver:  Solving for k, Initial residual = 0.017573, Final residual = 0.00143112, No Iterations 6
ExecutionTime = 0.34 s  ClockTime = 0 s

forceCoeffs forceCoeffs1 write:
    Coefficient	Total	Pressure	Viscous	Internal
    Cd:	0.00132407	0.00132407	0	0

    writing force and moment coefficient files.

runTimeControl runTimeControl1 output:
    runTimeControl: condition1 averages:
        CdMean: 0.000586378, delta: 0.000737696

    Conditions not met

Time = 56

smoothSolver:  Solving for Ux, Initial residual = 0.00373885, Final residual = 0.000300007, No Iterations 6
smoothSolver:  Solving for Uy, Initial residual = 0.0782561, Final residual = 0.00630082, No Iterations 4
Pressure gradient source: uncorrected Ubar = 0.999987, pressure gradient = 0.0544402
GAMG:  Solving for p, Initial residual = 0.0889601, Final residual = 0.000865642, No Iterations 4
time step continuity errors : sum local = 8.90112e-07, global = 3.26802e-18, cumulative = 2.12683e-16
Pressure gradient source: uncorrected Ubar = 1, pressure gradient = 0.0527344
smoothSolver:  Solving for epsilon, Initial residual = 0.0199056, Final residual = 0.00142787, No Iterations 6
smoothSolver:  Solving for k, Initial residual = 0.0171133, Final residual = 0.00141074, No Iterations 6
ExecutionTime = 0.35 s  ClockTime = 0 s

forceCoeffs forceCoeffs1 write:
    Coefficient	Total	Pressure	Viscous	Internal
    Cd:	0.00135184	0.00135184	0	0

    writing force and moment coefficient files.

runTimeControl runTimeControl1 output:
    runTimeControl: condition1 averages:
        CdMean: 0.000600047, delta: 0.000751791

    Conditions not met

Time = 57

smoothSolver:  Solving for Ux, Initial residual = 0.00370703, Final residual = 0.000297978, No Iterations 6
smoothSolver:  Solving for Uy, Initial residual = 0.0799197, Final residual = 0.00612013, No Iterations 4
Pressure gradient source: uncorrected Ubar = 0.999988, pressure gradient = 0.0541478
GAMG:  Solving for p, Initial residual = 0.0885357, Final residual = 0.000844061, No Iterations 4
time step continuity errors : sum local = 7.91306e-07, global = 3.13956e-17, cumulative = 2.44079e-16
Pressure gradient source: uncorrected Ubar = 1, pressure gradient = 0.0525634
smoothSolver:  Solving for epsilon, Initial residual = 0.0188927, Final residual = 0.00133425, No Iterations 6
smoothSolver:  Solving for k, Initial residual = 0.0167815, Final residual = 0.00137832, No Iterations 6
ExecutionTime = 0.35 s  ClockTime = 0 s

forceCoeffs forceCoeffs1 write:
    Coefficient	Total	Pressure	Viscous	Internal
    Cd:	0.00137898	0.00137898	0	0

    writing force and moment coefficient files.

runTimeControl runTimeControl1 output:
    runTimeControl: condition1 averages:
        CdMean: 0.000613713, delta: 0.000765264

    Conditions not met

Time = 58

smoothSolver:  Solving for Ux, Initial residual = 0.00367258, Final residual = 0.000295866, No Iterations 6
smoothSolver:  Solving for Uy, Initial residual = 0.0829031, Final residual = 0.0054212, No Iterations 4
Pressure gradient source: uncorrected Ubar = 0.99999, pressure gradient = 0.0537519
GAMG:  Solving for p, Initial residual = 0.0873354, Final residual = 0.000800208, No Iterations 4
time step continuity errors : sum local = 7.21914e-07, global = -1.05956e-17, cumulative = 2.33483e-16
Pressure gradient source: uncorrected Ubar = 1, pressure gradient = 0.0523734
smoothSolver:  Solving for epsilon, Initial residual = 0.0182864, Final residual = 0.00128765, No Iterations 6
smoothSolver:  Solving for k, Initial residual = 0.0164517, Final residual = 0.00135614, No Iterations 6
ExecutionTime = 0.35 s  ClockTime = 0 s

forceCoeffs forceCoeffs1 write:
    Coefficient	Total	Pressure	Viscous	Internal
    Cd:	0.00140546	0.00140546	0	0

    writing force and moment coefficient files.

runTimeControl runTimeControl1 output:
    runTimeControl: condition1 averages:
        CdMean: 0.000627364, delta: 0.0007781

    Conditions not met

Time = 59

smoothSolver:  Solving for Ux, Initial residual = 0.00364067, Final residual = 0.00029385, No Iterations 6
smoothSolver:  Solving for Uy, Initial residual = 0.0769399, Final residual = 0.00497269, No Iterations 4
Pressure gradient source: uncorrected Ubar = 0.999991, pressure gradient = 0.053423
GAMG:  Solving for p, Initial residual = 0.0928486, Final residual = 0.000424035, No Iterations 4
time step continuity errors : sum local = 3.59242e-07, global = 5.87194e-17, cumulative = 2.92203e-16
Pressure gradient source: uncorrected Ubar = 1, pressure gradient = 0.0521755
smoothSolver:  Solving for epsilon, Initial residual = 0.0175473, Final residual = 0.0012274, No Iterations 6
smoothSolver:  Solving for k, Initial residual = 0.0161579, Final residual = 0.00132453, No Iterations 6
ExecutionTime = 0.36 s  ClockTime = 0 s

forceCoeffs forceCoeffs1 write:
    Coefficient	Total	Pressure	Viscous	Internal
    Cd:	0.00143128	0.00143128	0	0

    writing force and moment coefficient files.

runTimeControl runTimeControl1 output:
    runTimeControl: condition1 averages:
        CdMean: 0.000640989, delta: 0.000790292

    Conditions not met

Time = 60

smoothSolver:  Solving for Ux, Initial residual = 0.00361093, Final residual = 0.000291965, No Iterations 6
smoothSolver:  Solving for Uy, Initial residual = 0.0759376, Final residual = 0.00515678, No Iterations 4
Pressure gradient source: uncorrected Ubar = 0.999991, pressure gradient = 0.0531925
GAMG:  Solving for p, Initial residual = 0.0928027, Final residual = 0.000658372, No Iterations 4
time step continuity errors : sum local = 5.0688e-07, global = -4.2417e-18, cumulative = 2.87961e-16
Pressure gradient source: uncorrected Ubar = 1, pressure gradient = 0.0519828
smoothSolver:  Solving for epsilon, Initial residual = 0.0169004, Final residual = 0.00116818, No Iterations 6
smoothSolver:  Solving for k, Initial residual = 0.0158602, Final residual = 0.00130207, No Iterations 6
ExecutionTime = 0.36 s  ClockTime = 0 s

forceCoeffs forceCoeffs1 write:
    Coefficient	Total	Pressure	Viscous	Internal
    Cd:	0.00145642	0.00145642	0	0

    writing force and moment coefficient files.

runTimeControl runTimeControl1 output:
    runTimeControl: condition1 averages:
        CdMean: 0.00065458, delta: 0.000801837

    Conditions not met

Time = 61

smoothSolver:  Solving for Ux, Initial residual = 0.00358142, Final residual = 0.000290147, No Iterations 6
smoothSolver:  Solving for Uy, Initial residual = 0.0785918, Final residual = 0.00646201, No Iterations 4
Pressure gradient source: uncorrected Ubar = 0.999992, pressure gradient = 0.0528693
GAMG:  Solving for p, Initial residual = 0.10466, Final residual = 0.000505704, No Iterations 6
time step continuity errors : sum local = 3.90447e-07, global = -4.17503e-17, cumulative = 2.46211e-16
Pressure gradient source: uncorrected Ubar = 1, pressure gradient = 0.0517823
smoothSolver:  Solving for epsilon, Initial residual = 0.0162229, Final residual = 0.00111126, No Iterations 6
smoothSolver:  Solving for k, Initial residual = 0.0156134, Final residual = 0.00127436, No Iterations 6
ExecutionTime = 0.37 s  ClockTime = 0 s

forceCoeffs forceCoeffs1 write:
    Coefficient	Total	Pressure	Viscous	Internal
    Cd:	0.00148086	0.00148086	0	0

    writing force and moment coefficient files.

runTimeControl runTimeControl1 output:
    runTimeControl: condition1 averages:
        CdMean: 0.000668125, delta: 0.00081273

    Conditions not met

Time = 62

smoothSolver:  Solving for Ux, Initial residual = 0.0035543, Final residual = 0.000288483, No Iterations 6
smoothSolver:  Solving for Uy, Initial residual = 0.0798144, Final residual = 0.00591514, No Iterations 4
Pressure gradient source: uncorrected Ubar = 0.999993, pressure gradient = 0.0526002
GAMG:  Solving for p, Initial residual = 0.0967345, Final residual = 0.000811383, No Iterations 5
time step continuity errors : sum local = 5.64516e-07, global = -1.77813e-17, cumulative = 2.28429e-16
Pressure gradient source: uncorrected Ubar = 1, pressure gradient = 0.0515813
smoothSolver:  Solving for epsilon, Initial residual = 0.0155389, Final residual = 0.00105647, No Iterations 6
smoothSolver:  Solving for k, Initial residual = 0.0153801, Final residual = 0.00125563, No Iterations 6
ExecutionTime = 0.38 s  ClockTime = 0 s

forceCoeffs forceCoeffs1 write:
    Coefficient	Total	Pressure	Viscous	Internal
    Cd:	0.00150459	0.00150459	0	0

    writing force and moment coefficient files.

runTimeControl runTimeControl1 output:
    runTimeControl: condition1 averages:
        CdMean: 0.000681617, delta: 0.000822974

    Conditions not met

Time = 63

smoothSolver:  Solving for Ux, Initial residual = 0.00352848, Final residual = 0.000286947, No Iterations 6
smoothSolver:  Solving for Uy, Initial residual = 0.0787146, Final residual = 0.00591799, No Iterations 4
Pressure gradient source: uncorrected Ubar = 0.999994, pressure gradient = 0.0523025
GAMG:  Solving for p, Initial residual = 0.111749, Final residual = 0.00068984, No Iterations 5
time step continuity errors : sum local = 4.48249e-07, global = -2.63894e-17, cumulative = 2.0204e-16
Pressure gradient source: uncorrected Ubar = 1, pressure gradient = 0.0513764
smoothSolver:  Solving for epsilon, Initial residual = 0.0149922, Final residual = 0.00101144, No Iterations 6
smoothSolver:  Solving for k, Initial residual = 0.0152164, Final residual = 0.00124068, No Iterations 6
ExecutionTime = 0.38 s  ClockTime = 0 s

forceCoeffs forceCoeffs1 write:
    Coefficient	Total	Pressure	Viscous	Internal
    Cd:	0.00152761	0.00152761	0	0

    writing force and moment coefficient files.

runTimeControl runTimeControl1 output:
    runTimeControl: condition1 averages:
        CdMean: 0.000695045, delta: 0.000832568

    Conditions not met

Time = 64

smoothSolver:  Solving for Ux, Initial residual = 0.00350251, Final residual = 0.000285387, No Iterations 6
smoothSolver:  Solving for Uy, Initial residual = 0.0850691, Final residual = 0.00624858, No Iterations 4
Pressure gradient source: uncorrected Ubar = 0.999995, pressure gradient = 0.0519223
GAMG:  Solving for p, Initial residual = 0.116911, Final residual = 0.00108201, No Iterations 4
time step continuity errors : sum local = 6.73827e-07, global = 6.86256e-17, cumulative = 2.70666e-16
Pressure gradient source: uncorrected Ubar = 1, pressure gradient = 0.0511564
smoothSolver:  Solving for epsilon, Initial residual = 0.0143681, Final residual = 0.000971706, No Iterations 6
smoothSolver:  Solving for k, Initial residual = 0.0149537, Final residual = 0.00121471, No Iterations 6
ExecutionTime = 0.38 s  ClockTime = 0 s

forceCoeffs forceCoeffs1 write:
    Coefficient	Total	Pressure	Viscous	Internal
    Cd:	0.00154992	0.00154992	0	0

    writing force and moment coefficient files.

runTimeControl runTimeControl1 output:
    runTimeControl: condition1 averages:
        CdMean: 0.000708403, delta: 0.000841517

    Conditions not met

Time = 65

smoothSolver:  Solving for Ux, Initial residual = 0.00347994, Final residual = 0.000284051, No Iterations 6
smoothSolver:  Solving for Uy, Initial residual = 0.0789644, Final residual = 0.00525818, No Iterations 4
Pressure gradient source: uncorrected Ubar = 0.999995, pressure gradient = 0.0517279
GAMG:  Solving for p, Initial residual = 0.101969, Final residual = 0.000744581, No Iterations 5
time step continuity errors : sum local = 4.57359e-07, global = 1.7377e-17, cumulative = 2.88043e-16
Pressure gradient source: uncorrected Ubar = 1, pressure gradient = 0.0509476
smoothSolver:  Solving for epsilon, Initial residual = 0.0137668, Final residual = 0.00091434, No Iterations 6
smoothSolver:  Solving for k, Initial residual = 0.0147923, Final residual = 0.00120969, No Iterations 6
ExecutionTime = 0.39 s  ClockTime = 0 s

forceCoeffs forceCoeffs1 write:
    Coefficient	Total	Pressure	Viscous	Internal
    Cd:	0.00157152	0.00157152	0	0

    writing force and moment coefficient files.

runTimeControl runTimeControl1 output:
    runTimeControl: condition1 averages:
        CdMean: 0.000721681, delta: 0.000849836

    Conditions not met

Time = 66

smoothSolver:  Solving for Ux, Initial residual = 0.00345662, Final residual = 0.000282701, No Iterations 6
smoothSolver:  Solving for Uy, Initial residual = 0.0800753, Final residual = 0.00512526, No Iterations 4
Pressure gradient source: uncorrected Ubar = 0.999996, pressure gradient = 0.0513659
GAMG:  Solving for p, Initial residual = 0.110343, Final residual = 0.000728399, No Iterations 4
time step continuity errors : sum local = 4.1091e-07, global = 1.88184e-20, cumulative = 2.88061e-16
Pressure gradient source: uncorrected Ubar = 1, pressure gradient = 0.0507258
smoothSolver:  Solving for epsilon, Initial residual = 0.0134618, Final residual = 0.000904584, No Iterations 6
smoothSolver:  Solving for k, Initial residual = 0.0146425, Final residual = 0.00118929, No Iterations 6
ExecutionTime = 0.39 s  ClockTime = 0 s

forceCoeffs forceCoeffs1 write:
    Coefficient	Total	Pressure	Viscous	Internal
    Cd:	0.0015924	0.0015924	0	0

    writing force and moment coefficient files.

runTimeControl runTimeControl1 output:
    runTimeControl: condition1 averages:
        CdMean: 0.000734874, delta: 0.000857523

    Conditions not met

Time = 67

smoothSolver:  Solving for Ux, Initial residual = 0.00343625, Final residual = 0.00028147, No Iterations 6
smoothSolver:  Solving for Uy, Initial residual = 0.0820163, Final residual = 0.0058224, No Iterations 4
Pressure gradient source: uncorrected Ubar = 0.999997, pressure gradient = 0.0510689
GAMG:  Solving for p, Initial residual = 0.128573, Final residual = 0.00114196, No Iterations 4
time step continuity errors : sum local = 5.90486e-07, global = 6.01084e-17, cumulative = 3.4817e-16
Pressure gradient source: uncorrected Ubar = 1, pressure gradient = 0.0505009
smoothSolver:  Solving for epsilon, Initial residual = 0.0128587, Final residual = 0.000852352, No Iterations 6
smoothSolver:  Solving for k, Initial residual = 0.0145199, Final residual = 0.00118306, No Iterations 6
ExecutionTime = 0.4 s  ClockTime = 0 s

forceCoeffs forceCoeffs1 write:
    Coefficient	Total	Pressure	Viscous	Internal
    Cd:	0.00161257	0.00161257	0	0

[...]
Pressure gradient source: uncorrected Ubar = 1, pressure gradient = 0.00273324
smoothSolver:  Solving for epsilon, Initial residual = 8.21249e-06, Final residual = 8.21249e-06, No Iterations 0
smoothSolver:  Solving for k, Initial residual = 9.73267e-06, Final residual = 9.73267e-06, No Iterations 0
ExecutionTime = 12.3 s  ClockTime = 14 s

forceCoeffs forceCoeffs1 write:
    Coefficient	Total	Pressure	Viscous	Internal
    Cd:	0.000546768	0.000546768	0	0

    writing force and moment coefficient files.

runTimeControl runTimeControl1 output:
    runTimeControl: condition1 averages:
        CdMean: 0.000559584, delta: 1.28155e-05

    Conditions not met

Time = 2361

smoothSolver:  Solving for Ux, Initial residual = 7.68594e-07, Final residual = 7.68594e-07, No Iterations 0
smoothSolver:  Solving for Uy, Initial residual = 0.00161711, Final residual = 9.59157e-05, No Iterations 5
Pressure gradient source: uncorrected Ubar = 1, pressure gradient = 0.00273324
GAMG:  Solving for p, Initial residual = 0.000287769, Final residual = 2.23506e-06, No Iterations 13
time step continuity errors : sum local = 2.11667e-11, global = 7.16296e-18, cumulative = 1.75333e-14
Pressure gradient source: uncorrected Ubar = 1, pressure gradient = 0.00273324
smoothSolver:  Solving for epsilon, Initial residual = 8.21495e-06, Final residual = 8.21495e-06, No Iterations 0
smoothSolver:  Solving for k, Initial residual = 9.73815e-06, Final residual = 9.73815e-06, No Iterations 0
ExecutionTime = 12.31 s  ClockTime = 14 s

forceCoeffs forceCoeffs1 write:
    Coefficient	Total	Pressure	Viscous	Internal
    Cd:	0.000546768	0.000546768	0	0

    writing force and moment coefficient files.

runTimeControl runTimeControl1 output:
    runTimeControl: condition1 averages:
        CdMean: 0.000559558, delta: 1.27899e-05

    Conditions not met

Time = 2362

smoothSolver:  Solving for Ux, Initial residual = 7.67635e-07, Final residual = 7.67635e-07, No Iterations 0
smoothSolver:  Solving for Uy, Initial residual = 0.00155004, Final residual = 0.000154404, No Iterations 4
Pressure gradient source: uncorrected Ubar = 1, pressure gradient = 0.00273324
GAMG:  Solving for p, Initial residual = 0.00026497, Final residual = 2.03073e-06, No Iterations 13
time step continuity errors : sum local = 1.92283e-11, global = -1.43008e-17, cumulative = 1.7519e-14
Pressure gradient source: uncorrected Ubar = 1, pressure gradient = 0.00273324
smoothSolver:  Solving for epsilon, Initial residual = 8.21739e-06, Final residual = 8.21739e-06, No Iterations 0
smoothSolver:  Solving for k, Initial residual = 9.74361e-06, Final residual = 9.74361e-06, No Iterations 0
ExecutionTime = 12.31 s  ClockTime = 14 s

forceCoeffs forceCoeffs1 write:
    Coefficient	Total	Pressure	Viscous	Internal
    Cd:	0.000546768	0.000546768	0	0

    writing force and moment coefficient files.

runTimeControl runTimeControl1 output:
    runTimeControl: condition1 averages:
        CdMean: 0.000559533, delta: 1.27644e-05

    Conditions not met

Time = 2363

smoothSolver:  Solving for Ux, Initial residual = 7.66679e-07, Final residual = 7.66679e-07, No Iterations 0
smoothSolver:  Solving for Uy, Initial residual = 0.0015145, Final residual = 0.000151364, No Iterations 4
Pressure gradient source: uncorrected Ubar = 1, pressure gradient = 0.00273324
GAMG:  Solving for p, Initial residual = 0.000258523, Final residual = 1.96351e-06, No Iterations 13
time step continuity errors : sum local = 1.85678e-11, global = -2.28446e-18, cumulative = 1.75168e-14
Pressure gradient source: uncorrected Ubar = 1, pressure gradient = 0.00273324
smoothSolver:  Solving for epsilon, Initial residual = 8.2198e-06, Final residual = 8.2198e-06, No Iterations 0
smoothSolver:  Solving for k, Initial residual = 9.74906e-06, Final residual = 9.74906e-06, No Iterations 0
ExecutionTime = 12.31 s  ClockTime = 14 s

forceCoeffs forceCoeffs1 write:
    Coefficient	Total	Pressure	Viscous	Internal
    Cd:	0.000546768	0.000546768	0	0

    writing force and moment coefficient files.

runTimeControl runTimeControl1 output:
    runTimeControl: condition1 averages:
        CdMean: 0.000559507, delta: 1.27389e-05

    Conditions not met

Time = 2364

smoothSolver:  Solving for Ux, Initial residual = 7.65724e-07, Final residual = 7.65724e-07, No Iterations 0
smoothSolver:  Solving for Uy, Initial residual = 0.0014718, Final residual = 8.76579e-05, No Iterations 5
Pressure gradient source: uncorrected Ubar = 1, pressure gradient = 0.00273324
GAMG:  Solving for p, Initial residual = 0.00025827, Final residual = 1.94649e-06, No Iterations 13
time step continuity errors : sum local = 1.83771e-11, global = 3.3698e-17, cumulative = 1.75505e-14
Pressure gradient source: uncorrected Ubar = 1, pressure gradient = 0.00273324
smoothSolver:  Solving for epsilon, Initial residual = 8.22225e-06, Final residual = 8.22225e-06, No Iterations 0
smoothSolver:  Solving for k, Initial residual = 9.75449e-06, Final residual = 9.75449e-06, No Iterations 0
ExecutionTime = 12.32 s  ClockTime = 14 s

forceCoeffs forceCoeffs1 write:
    Coefficient	Total	Pressure	Viscous	Internal
    Cd:	0.000546768	0.000546768	0	0

    writing force and moment coefficient files.

runTimeControl runTimeControl1 output:
    runTimeControl: condition1 averages:
        CdMean: 0.000559482, delta: 1.27134e-05

    Conditions not met

Time = 2365

smoothSolver:  Solving for Ux, Initial residual = 7.6477e-07, Final residual = 7.6477e-07, No Iterations 0
smoothSolver:  Solving for Uy, Initial residual = 0.00141061, Final residual = 8.37738e-05, No Iterations 5
Pressure gradient source: uncorrected Ubar = 1, pressure gradient = 0.00273324
GAMG:  Solving for p, Initial residual = 0.000244961, Final residual = 1.82896e-06, No Iterations 13
time step continuity errors : sum local = 1.72472e-11, global = -1.34648e-17, cumulative = 1.7537e-14
Pressure gradient source: uncorrected Ubar = 1, pressure gradient = 0.00273324
smoothSolver:  Solving for epsilon, Initial residual = 8.22467e-06, Final residual = 8.22467e-06, No Iterations 0
smoothSolver:  Solving for k, Initial residual = 9.75991e-06, Final residual = 9.75991e-06, No Iterations 0
ExecutionTime = 12.33 s  ClockTime = 14 s

forceCoeffs forceCoeffs1 write:
    Coefficient	Total	Pressure	Viscous	Internal
    Cd:	0.000546768	0.000546768	0	0

    writing force and moment coefficient files.

runTimeControl runTimeControl1 output:
    runTimeControl: condition1 averages:
        CdMean: 0.000559456, delta: 1.2688e-05

    Conditions not met

Time = 2366

smoothSolver:  Solving for Ux, Initial residual = 7.63818e-07, Final residual = 7.63818e-07, No Iterations 0
smoothSolver:  Solving for Uy, Initial residual = 0.00136161, Final residual = 0.000136124, No Iterations 4
Pressure gradient source: uncorrected Ubar = 1, pressure gradient = 0.00273324
GAMG:  Solving for p, Initial residual = 0.000228986, Final residual = 1.68423e-06, No Iterations 13
time step continuity errors : sum local = 1.58601e-11, global = -7.60437e-18, cumulative = 1.75294e-14
Pressure gradient source: uncorrected Ubar = 1, pressure gradient = 0.00273324
smoothSolver:  Solving for epsilon, Initial residual = 8.22709e-06, Final residual = 8.22709e-06, No Iterations 0
smoothSolver:  Solving for k, Initial residual = 9.76534e-06, Final residual = 9.76534e-06, No Iterations 0
ExecutionTime = 12.33 s  ClockTime = 14 s

forceCoeffs forceCoeffs1 write:
    Coefficient	Total	Pressure	Viscous	Internal
    Cd:	0.000546768	0.000546768	0	0

    writing force and moment coefficient files.

runTimeControl runTimeControl1 output:
    runTimeControl: condition1 averages:
        CdMean: 0.000559431, delta: 1.26627e-05

    Conditions not met

Time = 2367

smoothSolver:  Solving for Ux, Initial residual = 7.62866e-07, Final residual = 7.62866e-07, No Iterations 0
smoothSolver:  Solving for Uy, Initial residual = 0.00133547, Final residual = 7.9629e-05, No Iterations 5
Pressure gradient source: uncorrected Ubar = 1, pressure gradient = 0.00273324
GAMG:  Solving for p, Initial residual = 0.000231064, Final residual = 1.67658e-06, No Iterations 13
time step continuity errors : sum local = 1.57609e-11, global = 1.33397e-17, cumulative = 1.75427e-14
Pressure gradient source: uncorrected Ubar = 1, pressure gradient = 0.00273324
smoothSolver:  Solving for epsilon, Initial residual = 8.22949e-06, Final residual = 8.22949e-06, No Iterations 0
smoothSolver:  Solving for k, Initial residual = 9.77082e-06, Final residual = 9.77082e-06, No Iterations 0
ExecutionTime = 12.34 s  ClockTime = 14 s

forceCoeffs forceCoeffs1 write:
    Coefficient	Total	Pressure	Viscous	Internal
    Cd:	0.000546768	0.000546768	0	0

    writing force and moment coefficient files.

runTimeControl runTimeControl1 output:
    runTimeControl: condition1 averages:
        CdMean: 0.000559406, delta: 1.26374e-05

    Conditions not met

Time = 2368

smoothSolver:  Solving for Ux, Initial residual = 7.61915e-07, Final residual = 7.61915e-07, No Iterations 0
smoothSolver:  Solving for Uy, Initial residual = 0.00128429, Final residual = 7.64674e-05, No Iterations 5
Pressure gradient source: uncorrected Ubar = 1, pressure gradient = 0.00273324
GAMG:  Solving for p, Initial residual = 0.000220393, Final residual = 1.58024e-06, No Iterations 13
time step continuity errors : sum local = 1.48328e-11, global = 1.18024e-17, cumulative = 1.75545e-14
Pressure gradient source: uncorrected Ubar = 1, pressure gradient = 0.00273324
smoothSolver:  Solving for epsilon, Initial residual = 8.23186e-06, Final residual = 8.23186e-06, No Iterations 0
smoothSolver:  Solving for k, Initial residual = 9.77629e-06, Final residual = 9.77629e-06, No Iterations 0
ExecutionTime = 12.34 s  ClockTime = 14 s

forceCoeffs forceCoeffs1 write:
    Coefficient	Total	Pressure	Viscous	Internal
    Cd:	0.000546768	0.000546768	0	0

    writing force and moment coefficient files.

runTimeControl runTimeControl1 output:
    runTimeControl: condition1 averages:
        CdMean: 0.00055938, delta: 1.26121e-05

    Conditions not met

Time = 2369

smoothSolver:  Solving for Ux, Initial residual = 7.60965e-07, Final residual = 7.60965e-07, No Iterations 0
smoothSolver:  Solving for Uy, Initial residual = 0.00124189, Final residual = 7.38467e-05, No Iterations 5
Pressure gradient source: uncorrected Ubar = 1, pressure gradient = 0.00273324
GAMG:  Solving for p, Initial residual = 0.000211608, Final residual = 1.49439e-06, No Iterations 13
time step continuity errors : sum local = 1.40036e-11, global = 1.42017e-17, cumulative = 1.75687e-14
Pressure gradient source: uncorrected Ubar = 1, pressure gradient = 0.00273324
smoothSolver:  Solving for epsilon, Initial residual = 8.23422e-06, Final residual = 8.23422e-06, No Iterations 0
smoothSolver:  Solving for k, Initial residual = 9.78178e-06, Final residual = 9.78178e-06, No Iterations 0
ExecutionTime = 12.35 s  ClockTime = 14 s

forceCoeffs forceCoeffs1 write:
    Coefficient	Total	Pressure	Viscous	Internal
    Cd:	0.000546768	0.000546768	0	0

    writing force and moment coefficient files.

runTimeControl runTimeControl1 output:
    runTimeControl: condition1 averages:
        CdMean: 0.000559355, delta: 1.25869e-05

    Conditions not met

Time = 2370

smoothSolver:  Solving for Ux, Initial residual = 7.60015e-07, Final residual = 7.60015e-07, No Iterations 0
smoothSolver:  Solving for Uy, Initial residual = 0.00120387, Final residual = 7.15401e-05, No Iterations 5
Pressure gradient source: uncorrected Ubar = 1, pressure gradient = 0.00273324
GAMG:  Solving for p, Initial residual = 0.00020427, Final residual = 1.41545e-06, No Iterations 13
time step continuity errors : sum local = 1.32409e-11, global = -4.06251e-17, cumulative = 1.75281e-14
Pressure gradient source: uncorrected Ubar = 1, pressure gradient = 0.00273324
smoothSolver:  Solving for epsilon, Initial residual = 8.23656e-06, Final residual = 8.23656e-06, No Iterations 0
smoothSolver:  Solving for k, Initial residual = 9.78726e-06, Final residual = 9.78726e-06, No Iterations 0
ExecutionTime = 12.35 s  ClockTime = 14 s

forceCoeffs forceCoeffs1 write:
    Coefficient	Total	Pressure	Viscous	Internal
    Cd:	0.000546768	0.000546768	0	0

    writing force and moment coefficient files.

runTimeControl runTimeControl1 output:
    runTimeControl: condition1 averages:
        CdMean: 0.00055933, delta: 1.25618e-05

    Conditions not met

Time = 2371

smoothSolver:  Solving for Ux, Initial residual = 7.59067e-07, Final residual = 7.59067e-07, No Iterations 0
smoothSolver:  Solving for Uy, Initial residual = 0.00116759, Final residual = 6.93977e-05, No Iterations 5
Pressure gradient source: uncorrected Ubar = 1, pressure gradient = 0.00273324
GAMG:  Solving for p, Initial residual = 0.000197646, Final residual = 1.34041e-06, No Iterations 13
time step continuity errors : sum local = 1.25164e-11, global = 3.0495e-17, cumulative = 1.75586e-14
Pressure gradient source: uncorrected Ubar = 1, pressure gradient = 0.00273324
smoothSolver:  Solving for epsilon, Initial residual = 8.23889e-06, Final residual = 8.23889e-06, No Iterations 0
smoothSolver:  Solving for k, Initial residual = 9.79274e-06, Final residual = 9.79274e-06, No Iterations 0
ExecutionTime = 12.36 s  ClockTime = 14 s

forceCoeffs forceCoeffs1 write:
    Coefficient	Total	Pressure	Viscous	Internal
    Cd:	0.000546768	0.000546768	0	0

    writing force and moment coefficient files.

runTimeControl runTimeControl1 output:
    runTimeControl: condition1 averages:
        CdMean: 0.000559305, delta: 1.25367e-05

    Conditions not met

Time = 2372

smoothSolver:  Solving for Ux, Initial residual = 7.58119e-07, Final residual = 7.58119e-07, No Iterations 0
smoothSolver:  Solving for Uy, Initial residual = 0.00113217, Final residual = 6.73424e-05, No Iterations 5
Pressure gradient source: uncorrected Ubar = 1, pressure gradient = 0.00273324
GAMG:  Solving for p, Initial residual = 0.000191248, Final residual = 1.26839e-06, No Iterations 13
time step continuity errors : sum local = 1.18211e-11, global = 3.83268e-17, cumulative = 1.75969e-14
Pressure gradient source: uncorrected Ubar = 1, pressure gradient = 0.00273324
smoothSolver:  Solving for epsilon, Initial residual = 8.2412e-06, Final residual = 8.2412e-06, No Iterations 0
smoothSolver:  Solving for k, Initial residual = 9.79821e-06, Final residual = 9.79821e-06, No Iterations 0
ExecutionTime = 12.36 s  ClockTime = 14 s

forceCoeffs forceCoeffs1 write:
    Coefficient	Total	Pressure	Viscous	Internal
    Cd:	0.000546768	0.000546768	0	0

    writing force and moment coefficient files.

runTimeControl runTimeControl1 output:
    runTimeControl: condition1 averages:
        CdMean: 0.00055928, delta: 1.25117e-05

    Conditions not met

Time = 2373

smoothSolver:  Solving for Ux, Initial residual = 7.57172e-07, Final residual = 7.57172e-07, No Iterations 0
smoothSolver:  Solving for Uy, Initial residual = 0.00109743, Final residual = 6.53777e-05, No Iterations 5
Pressure gradient source: uncorrected Ubar = 1, pressure gradient = 0.00273324
GAMG:  Solving for p, Initial residual = 0.000184972, Final residual = 1.19967e-06, No Iterations 13
time step continuity errors : sum local = 1.11572e-11, global = 2.50916e-17, cumulative = 1.7622e-14
Pressure gradient source: uncorrected Ubar = 1, pressure gradient = 0.00273324
smoothSolver:  Solving for epsilon, Initial residual = 8.24348e-06, Final residual = 8.24348e-06, No Iterations 0
smoothSolver:  Solving for k, Initial residual = 9.80368e-06, Final residual = 9.80368e-06, No Iterations 0
ExecutionTime = 12.37 s  ClockTime = 14 s

forceCoeffs forceCoeffs1 write:
    Coefficient	Total	Pressure	Viscous	Internal
    Cd:	0.000546768	0.000546768	0	0

    writing force and moment coefficient files.

runTimeControl runTimeControl1 output:
    runTimeControl: condition1 averages:
        CdMean: 0.000559255, delta: 1.24867e-05

    Conditions not met

Time = 2374

smoothSolver:  Solving for Ux, Initial residual = 7.56226e-07, Final residual = 7.56226e-07, No Iterations 0
smoothSolver:  Solving for Uy, Initial residual = 0.00106342, Final residual = 6.3451e-05, No Iterations 5
Pressure gradient source: uncorrected Ubar = 1, pressure gradient = 0.00273324
GAMG:  Solving for p, Initial residual = 0.000178849, Final residual = 1.13412e-06, No Iterations 13
time step continuity errors : sum local = 1.05228e-11, global = -6.89302e-18, cumulative = 1.76151e-14
Pressure gradient source: uncorrected Ubar = 1, pressure gradient = 0.00273324
smoothSolver:  Solving for epsilon, Initial residual = 8.24576e-06, Final residual = 8.24576e-06, No Iterations 0
smoothSolver:  Solving for k, Initial residual = 9.80914e-06, Final residual = 9.80914e-06, No Iterations 0
ExecutionTime = 12.37 s  ClockTime = 14 s

forceCoeffs forceCoeffs1 write:
    Coefficient	Total	Pressure	Viscous	Internal
    Cd:	0.000546768	0.000546768	0	0

    writing force and moment coefficient files.

runTimeControl runTimeControl1 output:
    runTimeControl: condition1 averages:
        CdMean: 0.00055923, delta: 1.24617e-05

    Conditions not met

Time = 2375

smoothSolver:  Solving for Ux, Initial residual = 7.55281e-07, Final residual = 7.55281e-07, No Iterations 0
smoothSolver:  Solving for Uy, Initial residual = 0.00103064, Final residual = 6.1575e-05, No Iterations 5
Pressure gradient source: uncorrected Ubar = 1, pressure gradient = 0.00273324
GAMG:  Solving for p, Initial residual = 0.000172976, Final residual = 1.07102e-06, No Iterations 13
time step continuity errors : sum local = 9.9118e-12, global = 1.00062e-17, cumulative = 1.76251e-14
Pressure gradient source: uncorrected Ubar = 1, pressure gradient = 0.00273324
smoothSolver:  Solving for epsilon, Initial residual = 8.24801e-06, Final residual = 8.24801e-06, No Iterations 0
smoothSolver:  Solving for k, Initial residual = 9.81461e-06, Final residual = 9.81461e-06, No Iterations 0
ExecutionTime = 12.38 s  ClockTime = 14 s

forceCoeffs forceCoeffs1 write:
    Coefficient	Total	Pressure	Viscous	Internal
    Cd:	0.000546768	0.000546768	0	0

    writing force and moment coefficient files.

runTimeControl runTimeControl1 output:
    runTimeControl: condition1 averages:
        CdMean: 0.000559205, delta: 1.24368e-05

    Conditions not met

Time = 2376

smoothSolver:  Solving for Ux, Initial residual = 7.54336e-07, Final residual = 7.54336e-07, No Iterations 0
smoothSolver:  Solving for Uy, Initial residual = 0.000999074, Final residual = 5.97651e-05, No Iterations 5
Pressure gradient source: uncorrected Ubar = 1, pressure gradient = 0.00273324
GAMG:  Solving for p, Initial residual = 0.000167184, Final residual = 1.62261e-06, No Iterations 12
time step continuity errors : sum local = 1.46074e-11, global = -3.8668e-17, cumulative = 1.75865e-14
Pressure gradient source: uncorrected Ubar = 1, pressure gradient = 0.00273324
smoothSolver:  Solving for epsilon, Initial residual = 8.25025e-06, Final residual = 8.25025e-06, No Iterations 0
smoothSolver:  Solving for k, Initial residual = 9.82009e-06, Final residual = 9.82009e-06, No Iterations 0
ExecutionTime = 12.39 s  ClockTime = 14 s

forceCoeffs forceCoeffs1 write:
    Coefficient	Total	Pressure	Viscous	Internal
    Cd:	0.000546768	0.000546768	0	0

    writing force and moment coefficient files.

runTimeControl runTimeControl1 output:
    runTimeControl: condition1 averages:
        CdMean: 0.00055918, delta: 1.2412e-05

equationInitialResidual: condition2: satisfied using threshold value: 0.001
    field: U, residual: 0.000999074

    average: condition1 condition satisfied
    equationInitialResidual: condition2 condition satisfied
    Stopping calculation
    Writing fields

yPlus yPlus write:
    writing field yPlus
    patch wall y+ : min = 0.296726, max = 0.296736, average = 0.29673
forceCoeffs forceCoeffs1 write:
    Coefficient	Total	Pressure	Viscous	Internal
    Cd:	0.000546768	0.000546768	0	0

    writing force and moment coefficient files.


End

