/*---------------------------------------------------------------------------*\
| =========                 |                                                 |
| \\      /  F ield         | OpenFOAM: The Open Source CFD Toolbox           |
|  \\    /   O peration     | Version:  2206                                  |
|   \\  /    A nd           | Website:  www.openfoam.com                      |
|    \\/     M anipulation  |                                                 |
\*---------------------------------------------------------------------------*/
Build  : _76d719d1-20220624 OPENFOAM=2206 version=2206
Arch   : "LSB;label=32;scalar=64"
Exec   : simpleFoam
Date   : Sep 24 2022
Time   : 12:38:24
Host   : fedoragq
PID    : 33170
I/O    : uncollated
Case   : /home/giuseppegq/volume/OpenFoam/planeChannelRAS/common
nProcs : 1
trapFpe: Floating point exception trapping enabled (FOAM_SIGFPE).
fileModificationChecking : Monitoring run-time modified files using timeStampMaster (fileModificationSkew 5, maxFileModificationPolls 20)
allowSystemOperations : Allowing user-supplied system call operations

// * * * * * * * * * * * * * * * * * * * * * * * * * * * * * * * * * * * * * //
Create time

Create mesh for time = 0


SIMPLE: no convergence criteria found. Calculations will run for 5000 steps.

Reading field p

Reading field U

Reading/calculating face flux field phi

Selecting incompressible transport model Newtonian
Selecting turbulence model type RAS
Selecting RAS turbulence model kEpsilon
RAS
{
    RASModel        kEpsilon;
    turbulence      on;
    printCoeffs     on;
    Cmu             0.09;
    C1              1.44;
    C2              1.92;
    C3              0;
    sigmak          1;
    sigmaEps        1.3;
}

No MRF models present

Creating finite volume options from "constant/fvOptions"

Selecting finite volume options type meanVelocityForce
    Source: momentumSource
    - selecting all cells
    - selected 3600 cell(s) with volume 0.2
    Initial pressure gradient = 0


Starting time loop

forceCoeffs forceCoeffs1:
    rho: rhoInf
    Freestream density (rhoInf) set to 1
    Not including porosity effects
    magUInf: 1
    lRef   : 2
    Aref   : 2
    rhoInf : 1
    Selecting coefficients:
    - Drag force: Cd


runTimeControl runTimeControl1:
Selecting runTimeCondition equationInitialResidual
Selecting runTimeCondition average
Selecting runTimeCondition equationInitialResidual

Time = 1

smoothSolver:  Solving for Ux, Initial residual = 0, Final residual = 0, No Iterations 0
smoothSolver:  Solving for Uy, Initial residual = 0, Final residual = 0, No Iterations 0
Pressure gradient source: uncorrected Ubar = 0, pressure gradient = 9.55693
GAMG:  Solving for p, Initial residual = 0.999997, Final residual = 0.00647555, No Iterations 11
time step continuity errors : sum local = 7.9938e-16, global = 4.22777e-17, cumulative = 4.22777e-17
Pressure gradient source: uncorrected Ubar = 0.870628, pressure gradient = 1.2364
smoothSolver:  Solving for epsilon, Initial residual = 0.318148, Final residual = 0.0289638, No Iterations 3
smoothSolver:  Solving for k, Initial residual = 1, Final residual = 0.0944578, No Iterations 6
ExecutionTime = 0.06 s  ClockTime = 1 s

forceCoeffs forceCoeffs1 write:
    Coefficient	Total	Pressure	Viscous	Internal
    Cd:	3.34424e-06	3.34424e-06	0	0

    writing force and moment coefficient files.

runTimeControl runTimeControl1 output:
    runTimeControl: condition1 averages:
        CdMean: 3.34424e-06, delta: 0

    Conditions not met

Time = 2

smoothSolver:  Solving for Ux, Initial residual = 0.0810237, Final residual = 0.00787135, No Iterations 7
smoothSolver:  Solving for Uy, Initial residual = 1, Final residual = 0.0522025, No Iterations 2
Pressure gradient source: uncorrected Ubar = 1.14847, pressure gradient = -8.31394
GAMG:  Solving for p, Initial residual = 1, Final residual = 0.00829407, No Iterations 5
time step continuity errors : sum local = 0.000588233, global = 7.02241e-17, cumulative = 1.12502e-16
Pressure gradient source: uncorrected Ubar = 1.01959, pressure gradient = -0.0239589
smoothSolver:  Solving for epsilon, Initial residual = 0.330348, Final residual = 0.0191449, No Iterations 2
smoothSolver:  Solving for k, Initial residual = 0.479323, Final residual = 0.0370554, No Iterations 7
ExecutionTime = 0.07 s  ClockTime = 1 s

forceCoeffs forceCoeffs1 write:
    Coefficient	Total	Pressure	Viscous	Internal
    Cd:	-1.48101e-05	-1.48101e-05	0	0

    writing force and moment coefficient files.

runTimeControl runTimeControl1 output:
    runTimeControl: condition1 averages:
        CdMean: -5.73292e-06, delta: 9.07716e-06

    Conditions not met

Time = 3

smoothSolver:  Solving for Ux, Initial residual = 0.0236984, Final residual = 0.00172799, No Iterations 3
smoothSolver:  Solving for Uy, Initial residual = 0.530404, Final residual = 0.0503951, No Iterations 2
Pressure gradient source: uncorrected Ubar = 0.988176, pressure gradient = 0.913596
GAMG:  Solving for p, Initial residual = 0.212758, Final residual = 0.00149958, No Iterations 6
time step continuity errors : sum local = 0.000187404, global = 2.07131e-17, cumulative = 1.33215e-16
Pressure gradient source: uncorrected Ubar = 0.998305, pressure gradient = 0.110405
smoothSolver:  Solving for epsilon, Initial residual = 0.204788, Final residual = 0.0149831, No Iterations 7
smoothSolver:  Solving for k, Initial residual = 0.282502, Final residual = 0.0251408, No Iterations 8
ExecutionTime = 0.08 s  ClockTime = 1 s

forceCoeffs forceCoeffs1 write:
    Coefficient	Total	Pressure	Viscous	Internal
    Cd:	-3.88148e-06	-3.88148e-06	0	0

    writing force and moment coefficient files.

runTimeControl runTimeControl1 output:
    runTimeControl: condition1 averages:
        CdMean: -5.11577e-06, delta: 1.23429e-06

    Conditions not met

Time = 4

smoothSolver:  Solving for Ux, Initial residual = 0.0162279, Final residual = 0.00125506, No Iterations 6
smoothSolver:  Solving for Uy, Initial residual = 0.443436, Final residual = 0.0323561, No Iterations 3
Pressure gradient source: uncorrected Ubar = 0.999508, pressure gradient = 0.156124
GAMG:  Solving for p, Initial residual = 0.163919, Final residual = 0.000904029, No Iterations 6
time step continuity errors : sum local = 0.000106869, global = 2.47412e-17, cumulative = 1.57956e-16
Pressure gradient source: uncorrected Ubar = 1.00007, pressure gradient = 0.10357
smoothSolver:  Solving for epsilon, Initial residual = 0.130427, Final residual = 0.0105603, No Iterations 8
smoothSolver:  Solving for k, Initial residual = 0.208418, Final residual = 0.0205062, No Iterations 8
ExecutionTime = 0.09 s  ClockTime = 1 s

forceCoeffs forceCoeffs1 write:
    Coefficient	Total	Pressure	Viscous	Internal
    Cd:	-1.92913e-06	-1.92913e-06	0	0

    writing force and moment coefficient files.

runTimeControl runTimeControl1 output:
    runTimeControl: condition1 averages:
        CdMean: -4.31911e-06, delta: 2.38998e-06

    Conditions not met

Time = 5

smoothSolver:  Solving for Ux, Initial residual = 0.0121426, Final residual = 0.00116458, No Iterations 6
smoothSolver:  Solving for Uy, Initial residual = 0.444465, Final residual = 0.0299791, No Iterations 4
Pressure gradient source: uncorrected Ubar = 0.999721, pressure gradient = 0.131829
GAMG:  Solving for p, Initial residual = 0.156143, Final residual = 0.000932785, No Iterations 5
time step continuity errors : sum local = 9.58153e-05, global = 1.84942e-17, cumulative = 1.7645e-16
Pressure gradient source: uncorrected Ubar = 1.00008, pressure gradient = 0.0955356
smoothSolver:  Solving for epsilon, Initial residual = 0.103993, Final residual = 0.009373, No Iterations 6
smoothSolver:  Solving for k, Initial residual = 0.165674, Final residual = 0.0146932, No Iterations 9
ExecutionTime = 0.09 s  ClockTime = 1 s

forceCoeffs forceCoeffs1 write:
    Coefficient	Total	Pressure	Viscous	Internal
    Cd:	4.68765e-07	4.68765e-07	0	0

    writing force and moment coefficient files.

runTimeControl runTimeControl1 output:
    runTimeControl: condition1 averages:
        CdMean: -3.36154e-06, delta: 3.8303e-06

    Conditions not met

Time = 6

smoothSolver:  Solving for Ux, Initial residual = 0.00977194, Final residual = 0.000847896, No Iterations 7
smoothSolver:  Solving for Uy, Initial residual = 0.484716, Final residual = 0.0391188, No Iterations 4
Pressure gradient source: uncorrected Ubar = 1.0003, pressure gradient = 0.0637491
GAMG:  Solving for p, Initial residual = 0.136809, Final residual = 0.00117565, No Iterations 5
time step continuity errors : sum local = 0.000103325, global = 4.52793e-17, cumulative = 2.21729e-16
Pressure gradient source: uncorrected Ubar = 1.00012, pressure gradient = 0.0832487
smoothSolver:  Solving for epsilon, Initial residual = 0.100394, Final residual = 0.00889627, No Iterations 7
smoothSolver:  Solving for k, Initial residual = 0.142673, Final residual = 0.0129976, No Iterations 9
ExecutionTime = 0.1 s  ClockTime = 1 s

forceCoeffs forceCoeffs1 write:
    Coefficient	Total	Pressure	Viscous	Internal
    Cd:	2.2631e-06	2.2631e-06	0	0

    writing force and moment coefficient files.

runTimeControl runTimeControl1 output:
    runTimeControl: condition1 averages:
        CdMean: -2.4241e-06, delta: 4.68719e-06

    Conditions not met

Time = 7

smoothSolver:  Solving for Ux, Initial residual = 0.00808873, Final residual = 0.000774965, No Iterations 7
smoothSolver:  Solving for Uy, Initial residual = 0.452043, Final residual = 0.0425435, No Iterations 4
Pressure gradient source: uncorrected Ubar = 1.00011, pressure gradient = 0.0709087
GAMG:  Solving for p, Initial residual = 0.125062, Final residual = 0.000889642, No Iterations 5
time step continuity errors : sum local = 6.76856e-05, global = 1.66552e-17, cumulative = 2.38385e-16
Pressure gradient source: uncorrected Ubar = 1.00008, pressure gradient = 0.0742982
smoothSolver:  Solving for epsilon, Initial residual = 0.0831158, Final residual = 0.00689827, No Iterations 9
smoothSolver:  Solving for k, Initial residual = 0.12756, Final residual = 0.0119214, No Iterations 9
ExecutionTime = 0.11 s  ClockTime = 1 s

forceCoeffs forceCoeffs1 write:
    Coefficient	Total	Pressure	Viscous	Internal
    Cd:	3.58873e-06	3.58873e-06	0	0

    writing force and moment coefficient files.

runTimeControl runTimeControl1 output:
    runTimeControl: condition1 averages:
        CdMean: -1.56512e-06, delta: 5.15385e-06

    Conditions not met

Time = 8

smoothSolver:  Solving for Ux, Initial residual = 0.00685626, Final residual = 0.000555364, No Iterations 8
smoothSolver:  Solving for Uy, Initial residual = 0.401588, Final residual = 0.0316276, No Iterations 5
Pressure gradient source: uncorrected Ubar = 1.00019, pressure gradient = 0.0531968
GAMG:  Solving for p, Initial residual = 0.127814, Final residual = 0.00118618, No Iterations 6
time step continuity errors : sum local = 7.74777e-05, global = 7.38507e-20, cumulative = 2.38458e-16
Pressure gradient source: uncorrected Ubar = 1.00007, pressure gradient = 0.0664951
smoothSolver:  Solving for epsilon, Initial residual = 0.0757489, Final residual = 0.0070832, No Iterations 7
smoothSolver:  Solving for k, Initial residual = 0.117135, Final residual = 0.0112608, No Iterations 9
ExecutionTime = 0.12 s  ClockTime = 1 s

forceCoeffs forceCoeffs1 write:
    Coefficient	Total	Pressure	Viscous	Internal
    Cd:	4.15609e-06	4.15609e-06	0	0

    writing force and moment coefficient files.

runTimeControl runTimeControl1 output:
    runTimeControl: condition1 averages:
        CdMean: -8.4997e-07, delta: 5.00606e-06

    Conditions not met

Time = 9

smoothSolver:  Solving for Ux, Initial residual = 0.00609577, Final residual = 0.000528057, No Iterations 8
smoothSolver:  Solving for Uy, Initial residual = 0.344812, Final residual = 0.0312949, No Iterations 5
Pressure gradient source: uncorrected Ubar = 0.999971, pressure gradient = 0.0698724
GAMG:  Solving for p, Initial residual = 0.116337, Final residual = 0.000881384, No Iterations 7
time step continuity errors : sum local = 5.02039e-05, global = 1.70999e-17, cumulative = 2.55558e-16
Pressure gradient source: uncorrected Ubar = 1.00004, pressure gradient = 0.0617084
smoothSolver:  Solving for epsilon, Initial residual = 0.042219, Final residual = 0.00410741, No Iterations 9
smoothSolver:  Solving for k, Initial residual = 0.105463, Final residual = 0.00839442, No Iterations 10
ExecutionTime = 0.13 s  ClockTime = 1 s

forceCoeffs forceCoeffs1 write:
    Coefficient	Total	Pressure	Viscous	Internal
    Cd:	3.89074e-06	3.89074e-06	0	0

    writing force and moment coefficient files.

runTimeControl runTimeControl1 output:
    runTimeControl: condition1 averages:
        CdMean: -3.23224e-07, delta: 4.21397e-06

    Conditions not met

Time = 10

smoothSolver:  Solving for Ux, Initial residual = 0.00542651, Final residual = 0.000505465, No Iterations 8
smoothSolver:  Solving for Uy, Initial residual = 0.293144, Final residual = 0.0218145, No Iterations 6
Pressure gradient source: uncorrected Ubar = 0.999955, pressure gradient = 0.0671807
GAMG:  Solving for p, Initial residual = 0.106201, Final residual = 0.000903785, No Iterations 6
time step continuity errors : sum local = 4.75002e-05, global = 3.32263e-17, cumulative = 2.88785e-16
Pressure gradient source: uncorrected Ubar = 1.00003, pressure gradient = 0.0576798
smoothSolver:  Solving for epsilon, Initial residual = 0.0639187, Final residual = 0.00520347, No Iterations 9
smoothSolver:  Solving for k, Initial residual = 0.0957523, Final residual = 0.00781817, No Iterations 10
ExecutionTime = 0.15 s  ClockTime = 1 s

forceCoeffs forceCoeffs1 write:
    Coefficient	Total	Pressure	Viscous	Internal
    Cd:	4.19249e-06	4.19249e-06	0	0

    writing force and moment coefficient files.

runTimeControl runTimeControl1 output:
    runTimeControl: condition1 averages:
        CdMean: 1.28347e-07, delta: 4.06414e-06

    Conditions not met

Time = 11

smoothSolver:  Solving for Ux, Initial residual = 0.00488615, Final residual = 0.000482042, No Iterations 8
smoothSolver:  Solving for Uy, Initial residual = 0.272749, Final residual = 0.0212912, No Iterations 6
Pressure gradient source: uncorrected Ubar = 0.999877, pressure gradient = 0.0729473
GAMG:  Solving for p, Initial residual = 0.104698, Final residual = 0.000926577, No Iterations 8
time step continuity errors : sum local = 4.27663e-05, global = -2.95065e-18, cumulative = 2.85834e-16
Pressure gradient source: uncorrected Ubar = 1.00002, pressure gradient = 0.0550843
smoothSolver:  Solving for epsilon, Initial residual = 0.0472064, Final residual = 0.00470732, No Iterations 9
smoothSolver:  Solving for k, Initial residual = 0.0921598, Final residual = 0.0075259, No Iterations 10
ExecutionTime = 0.16 s  ClockTime = 1 s

forceCoeffs forceCoeffs1 write:
    Coefficient	Total	Pressure	Viscous	Internal
    Cd:	5.10601e-06	5.10601e-06	0	0

    writing force and moment coefficient files.

runTimeControl runTimeControl1 output:
    runTimeControl: condition1 averages:
        CdMean: 5.80862e-07, delta: 4.52515e-06

    Conditions not met

Time = 12

smoothSolver:  Solving for Ux, Initial residual = 0.00449495, Final residual = 0.000364949, No Iterations 9
smoothSolver:  Solving for Uy, Initial residual = 0.238205, Final residual = 0.0199427, No Iterations 6
Pressure gradient source: uncorrected Ubar = 0.999936, pressure gradient = 0.0631745
GAMG:  Solving for p, Initial residual = 0.0915449, Final residual = 0.000912559, No Iterations 8
time step continuity errors : sum local = 3.78584e-05, global = 1.32501e-17, cumulative = 2.99084e-16
Pressure gradient source: uncorrected Ubar = 1.00002, pressure gradient = 0.0525156
smoothSolver:  Solving for epsilon, Initial residual = 0.0476768, Final residual = 0.00434648, No Iterations 8
smoothSolver:  Solving for k, Initial residual = 0.0859451, Final residual = 0.00734418, No Iterations 10
ExecutionTime = 0.17 s  ClockTime = 1 s

forceCoeffs forceCoeffs1 write:
    Coefficient	Total	Pressure	Viscous	Internal
    Cd:	5.10303e-06	5.10303e-06	0	0

    writing force and moment coefficient files.

runTimeControl runTimeControl1 output:
    runTimeControl: condition1 averages:
        CdMean: 9.57709e-07, delta: 4.14533e-06

    Conditions not met

Time = 13

smoothSolver:  Solving for Ux, Initial residual = 0.00420971, Final residual = 0.000358119, No Iterations 9
smoothSolver:  Solving for Uy, Initial residual = 0.223607, Final residual = 0.0206734, No Iterations 6
Pressure gradient source: uncorrected Ubar = 0.999908, pressure gradient = 0.0642855
GAMG:  Solving for p, Initial residual = 0.0815012, Final residual = 0.00079615, No Iterations 13
time step continuity errors : sum local = 3.12193e-05, global = 2.79902e-17, cumulative = 3.27074e-16
Pressure gradient source: uncorrected Ubar = 1.00002, pressure gradient = 0.0505516
smoothSolver:  Solving for epsilon, Initial residual = 0.0445508, Final residual = 0.00404261, No Iterations 9
smoothSolver:  Solving for k, Initial residual = 0.0809633, Final residual = 0.00696854, No Iterations 10
ExecutionTime = 0.18 s  ClockTime = 1 s

forceCoeffs forceCoeffs1 write:
    Coefficient	Total	Pressure	Viscous	Internal
    Cd:	4.78596e-06	4.78596e-06	0	0

    writing force and moment coefficient files.

runTimeControl runTimeControl1 output:
    runTimeControl: condition1 averages:
        CdMean: 1.25219e-06, delta: 3.53377e-06

    Conditions not met

Time = 14

smoothSolver:  Solving for Ux, Initial residual = 0.00392503, Final residual = 0.000349942, No Iterations 9
smoothSolver:  Solving for Uy, Initial residual = 0.195019, Final residual = 0.0189951, No Iterations 6
Pressure gradient source: uncorrected Ubar = 0.999912, pressure gradient = 0.0621286
GAMG:  Solving for p, Initial residual = 0.0767601, Final residual = 0.000763288, No Iterations 11
time step continuity errors : sum local = 2.66179e-05, global = 2.21541e-17, cumulative = 3.49228e-16
Pressure gradient source: uncorrected Ubar = 1.00001, pressure gradient = 0.0486813
smoothSolver:  Solving for epsilon, Initial residual = 0.0443613, Final residual = 0.00432611, No Iterations 9
smoothSolver:  Solving for k, Initial residual = 0.0772655, Final residual = 0.00668062, No Iterations 10
ExecutionTime = 0.18 s  ClockTime = 1 s

forceCoeffs forceCoeffs1 write:
    Coefficient	Total	Pressure	Viscous	Internal
    Cd:	5.36871e-06	5.36871e-06	0	0

    writing force and moment coefficient files.

runTimeControl runTimeControl1 output:
    runTimeControl: condition1 averages:
        CdMean: 1.54623e-06, delta: 3.82249e-06

    Conditions not met

Time = 15

smoothSolver:  Solving for Ux, Initial residual = 0.00369648, Final residual = 0.00034153, No Iterations 9
smoothSolver:  Solving for Uy, Initial residual = 0.175814, Final residual = 0.0138352, No Iterations 7
Pressure gradient source: uncorrected Ubar = 0.999869, pressure gradient = 0.0661668
GAMG:  Solving for p, Initial residual = 0.0782988, Final residual = 0.000731247, No Iterations 11
time step continuity errors : sum local = 2.24141e-05, global = 2.0954e-17, cumulative = 3.70182e-16
Pressure gradient source: uncorrected Ubar = 1.00001, pressure gradient = 0.0476323
smoothSolver:  Solving for epsilon, Initial residual = 0.0396366, Final residual = 0.00351432, No Iterations 9
smoothSolver:  Solving for k, Initial residual = 0.0753927, Final residual = 0.0065792, No Iterations 10
ExecutionTime = 0.2 s  ClockTime = 1 s

forceCoeffs forceCoeffs1 write:
    Coefficient	Total	Pressure	Viscous	Internal
    Cd:	5.81252e-06	5.81252e-06	0	0

    writing force and moment coefficient files.

runTimeControl runTimeControl1 output:
    runTimeControl: condition1 averages:
        CdMean: 1.83065e-06, delta: 3.98187e-06

    Conditions not met

Time = 16

smoothSolver:  Solving for Ux, Initial residual = 0.00352836, Final residual = 0.00033684, No Iterations 9
smoothSolver:  Solving for Uy, Initial residual = 0.162154, Final residual = 0.0131249, No Iterations 7
Pressure gradient source: uncorrected Ubar = 0.999862, pressure gradient = 0.0662653
GAMG:  Solving for p, Initial residual = 0.0781716, Final residual = 0.000755556, No Iterations 9
time step continuity errors : sum local = 2.14426e-05, global = 1.74206e-17, cumulative = 3.87603e-16
Pressure gradient source: uncorrected Ubar = 1.00001, pressure gradient = 0.0468654
smoothSolver:  Solving for epsilon, Initial residual = 0.0311614, Final residual = 0.00263979, No Iterations 10
smoothSolver:  Solving for k, Initial residual = 0.0710044, Final residual = 0.00629021, No Iterations 10
ExecutionTime = 0.21 s  ClockTime = 1 s

forceCoeffs forceCoeffs1 write:
    Coefficient	Total	Pressure	Viscous	Internal
    Cd:	5.59069e-06	5.59069e-06	0	0

    writing force and moment coefficient files.

runTimeControl runTimeControl1 output:
    runTimeControl: condition1 averages:
        CdMean: 2.06565e-06, delta: 3.52504e-06

    Conditions not met

Time = 17

smoothSolver:  Solving for Ux, Initial residual = 0.00337243, Final residual = 0.000331397, No Iterations 9
smoothSolver:  Solving for Uy, Initial residual = 0.14103, Final residual = 0.0121674, No Iterations 7
Pressure gradient source: uncorrected Ubar = 0.999865, pressure gradient = 0.0653456
GAMG:  Solving for p, Initial residual = 0.0758711, Final residual = 0.000723777, No Iterations 13
time step continuity errors : sum local = 1.89553e-05, global = -1.50505e-17, cumulative = 3.72553e-16
Pressure gradient source: uncorrected Ubar = 1.00001, pressure gradient = 0.0461334
smoothSolver:  Solving for epsilon, Initial residual = 0.0376771, Final residual = 0.0036699, No Iterations 9
smoothSolver:  Solving for k, Initial residual = 0.0677463, Final residual = 0.00609031, No Iterations 10
ExecutionTime = 0.22 s  ClockTime = 1 s

forceCoeffs forceCoeffs1 write:
    Coefficient	Total	Pressure	Viscous	Internal
    Cd:	5.65442e-06	5.65442e-06	0	0

    writing force and moment coefficient files.

runTimeControl runTimeControl1 output:
    runTimeControl: condition1 averages:
        CdMean: 2.27675e-06, delta: 3.37767e-06

    Conditions not met

Time = 18

smoothSolver:  Solving for Ux, Initial residual = 0.00323185, Final residual = 0.000256941, No Iterations 10
smoothSolver:  Solving for Uy, Initial residual = 0.13505, Final residual = 0.0120377, No Iterations 7
Pressure gradient source: uncorrected Ubar = 0.999893, pressure gradient = 0.060983
GAMG:  Solving for p, Initial residual = 0.0883411, Final residual = 0.000868469, No Iterations 13
time step continuity errors : sum local = 1.91762e-05, global = 5.87831e-17, cumulative = 4.31336e-16
Pressure gradient source: uncorrected Ubar = 1, pressure gradient = 0.0454861
smoothSolver:  Solving for epsilon, Initial residual = 0.0312993, Final residual = 0.00274108, No Iterations 10
smoothSolver:  Solving for k, Initial residual = 0.0664329, Final residual = 0.00596471, No Iterations 10
ExecutionTime = 0.23 s  ClockTime = 1 s

forceCoeffs forceCoeffs1 write:
    Coefficient	Total	Pressure	Viscous	Internal
    Cd:	6.18752e-06	6.18752e-06	0	0

    writing force and moment coefficient files.

runTimeControl runTimeControl1 output:
    runTimeControl: condition1 averages:
        CdMean: 2.49402e-06, delta: 3.6935e-06

    Conditions not met

Time = 19

smoothSolver:  Solving for Ux, Initial residual = 0.00315208, Final residual = 0.000253783, No Iterations 10
smoothSolver:  Solving for Uy, Initial residual = 0.128221, Final residual = 0.011881, No Iterations 7
Pressure gradient source: uncorrected Ubar = 0.999875, pressure gradient = 0.0630314
GAMG:  Solving for p, Initial residual = 0.0845019, Final residual = 0.000826467, No Iterations 19
time step continuity errors : sum local = 1.6261e-05, global = 1.02306e-17, cumulative = 4.41566e-16
Pressure gradient source: uncorrected Ubar = 1, pressure gradient = 0.0452111
smoothSolver:  Solving for epsilon, Initial residual = 0.0308537, Final residual = 0.00301106, No Iterations 9
smoothSolver:  Solving for k, Initial residual = 0.0637431, Final residual = 0.00582319, No Iterations 10
ExecutionTime = 0.24 s  ClockTime = 1 s

forceCoeffs forceCoeffs1 write:
    Coefficient	Total	Pressure	Viscous	Internal
    Cd:	6.30474e-06	6.30474e-06	0	0

    writing force and moment coefficient files.

runTimeControl runTimeControl1 output:
    runTimeControl: condition1 averages:
        CdMean: 2.69458e-06, delta: 3.61016e-06

    Conditions not met

Time = 20

smoothSolver:  Solving for Ux, Initial residual = 0.00310896, Final residual = 0.000251243, No Iterations 10
smoothSolver:  Solving for Uy, Initial residual = 0.125058, Final residual = 0.0115448, No Iterations 7
Pressure gradient source: uncorrected Ubar = 0.999889, pressure gradient = 0.0611112
GAMG:  Solving for p, Initial residual = 0.0867461, Final residual = 0.000863479, No Iterations 19
time step continuity errors : sum local = 1.50782e-05, global = -1.54877e-17, cumulative = 4.26079e-16
Pressure gradient source: uncorrected Ubar = 1, pressure gradient = 0.044767
smoothSolver:  Solving for epsilon, Initial residual = 0.029241, Final residual = 0.0024649, No Iterations 10
smoothSolver:  Solving for k, Initial residual = 0.061609, Final residual = 0.00565621, No Iterations 10
ExecutionTime = 0.25 s  ClockTime = 1 s

forceCoeffs forceCoeffs1 write:
    Coefficient	Total	Pressure	Viscous	Internal
    Cd:	6.17788e-06	6.17788e-06	0	0

    writing force and moment coefficient files.

runTimeControl runTimeControl1 output:
    runTimeControl: condition1 averages:
        CdMean: 2.86875e-06, delta: 3.30914e-06

    Conditions not met

Time = 21

smoothSolver:  Solving for Ux, Initial residual = 0.00306821, Final residual = 0.000248984, No Iterations 10
smoothSolver:  Solving for Uy, Initial residual = 0.116231, Final residual = 0.0110139, No Iterations 7
Pressure gradient source: uncorrected Ubar = 0.999875, pressure gradient = 0.0628769
GAMG:  Solving for p, Initial residual = 0.0876475, Final residual = 0.000846621, No Iterations 21
time step continuity errors : sum local = 1.26603e-05, global = 4.73617e-18, cumulative = 4.30815e-16
Pressure gradient source: uncorrected Ubar = 1, pressure gradient = 0.0446332
smoothSolver:  Solving for epsilon, Initial residual = 0.030251, Final residual = 0.00253938, No Iterations 10
smoothSolver:  Solving for k, Initial residual = 0.0589015, Final residual = 0.00545169, No Iterations 10
ExecutionTime = 0.26 s  ClockTime = 1 s

forceCoeffs forceCoeffs1 write:
    Coefficient	Total	Pressure	Viscous	Internal
    Cd:	6.47708e-06	6.47708e-06	0	0

    writing force and moment coefficient files.

runTimeControl runTimeControl1 output:
    runTimeControl: condition1 averages:
        CdMean: 3.04057e-06, delta: 3.43651e-06

    Conditions not met

Time = 22

smoothSolver:  Solving for Ux, Initial residual = 0.00302049, Final residual = 0.000246254, No Iterations 10
smoothSolver:  Solving for Uy, Initial residual = 0.106166, Final residual = 0.00846369, No Iterations 8
Pressure gradient source: uncorrected Ubar = 0.999885, pressure gradient = 0.0614878
GAMG:  Solving for p, Initial residual = 0.0880979, Final residual = 0.000856843, No Iterations 19
time step continuity errors : sum local = 1.06634e-05, global = -3.9878e-18, cumulative = 4.26827e-16
Pressure gradient source: uncorrected Ubar = 1, pressure gradient = 0.0443774
smoothSolver:  Solving for epsilon, Initial residual = 0.0267038, Final residual = 0.00233514, No Iterations 10
smoothSolver:  Solving for k, Initial residual = 0.0583827, Final residual = 0.00542338, No Iterations 10
ExecutionTime = 0.28 s  ClockTime = 1 s

forceCoeffs forceCoeffs1 write:
    Coefficient	Total	Pressure	Viscous	Internal
    Cd:	6.81575e-06	6.81575e-06	0	0

    writing force and moment coefficient files.

runTimeControl runTimeControl1 output:
    runTimeControl: condition1 averages:
        CdMean: 3.21217e-06, delta: 3.60358e-06

    Conditions not met

Time = 23

smoothSolver:  Solving for Ux, Initial residual = 0.00297948, Final residual = 0.000243751, No Iterations 10
smoothSolver:  Solving for Uy, Initial residual = 0.101323, Final residual = 0.00862843, No Iterations 8
Pressure gradient source: uncorrected Ubar = 0.999888, pressure gradient = 0.0609997
GAMG:  Solving for p, Initial residual = 0.100892, Final residual = 0.00096738, No Iterations 15
time step continuity errors : sum local = 1.00545e-05, global = 1.47425e-17, cumulative = 4.41569e-16
Pressure gradient source: uncorrected Ubar = 1, pressure gradient = 0.0441208
smoothSolver:  Solving for epsilon, Initial residual = 0.0235319, Final residual = 0.00215291, No Iterations 10
smoothSolver:  Solving for k, Initial residual = 0.0561231, Final residual = 0.00526577, No Iterations 10
ExecutionTime = 0.29 s  ClockTime = 1 s

forceCoeffs forceCoeffs1 write:
    Coefficient	Total	Pressure	Viscous	Internal
    Cd:	6.80266e-06	6.80266e-06	0	0

    writing force and moment coefficient files.

runTimeControl runTimeControl1 output:
    runTimeControl: condition1 averages:
        CdMean: 3.36828e-06, delta: 3.43438e-06

    Conditions not met

Time = 24

smoothSolver:  Solving for Ux, Initial residual = 0.00295793, Final residual = 0.000242571, No Iterations 10
smoothSolver:  Solving for Uy, Initial residual = 0.0993099, Final residual = 0.00860734, No Iterations 8
Pressure gradient source: uncorrected Ubar = 0.999864, pressure gradient = 0.0644419
GAMG:  Solving for p, Initial residual = 0.0984398, Final residual = 0.000957556, No Iterations 13
time step continuity errors : sum local = 9.11727e-06, global = -2.83763e-17, cumulative = 4.13193e-16
Pressure gradient source: uncorrected Ubar = 0.999998, pressure gradient = 0.0443504
smoothSolver:  Solving for epsilon, Initial residual = 0.0263547, Final residual = 0.00225987, No Iterations 10
smoothSolver:  Solving for k, Initial residual = 0.0544323, Final residual = 0.00515331, No Iterations 10
ExecutionTime = 0.3 s  ClockTime = 1 s

forceCoeffs forceCoeffs1 write:
    Coefficient	Total	Pressure	Viscous	Internal
    Cd:	6.86907e-06	6.86907e-06	0	0

    writing force and moment coefficient files.

runTimeControl runTimeControl1 output:
    runTimeControl: condition1 averages:
        CdMean: 3.51415e-06, delta: 3.35492e-06

    Conditions not met

Time = 25

smoothSolver:  Solving for Ux, Initial residual = 0.00293112, Final residual = 0.000241239, No Iterations 10
smoothSolver:  Solving for Uy, Initial residual = 0.0945467, Final residual = 0.00840283, No Iterations 8
Pressure gradient source: uncorrected Ubar = 0.999876, pressure gradient = 0.0630984
GAMG:  Solving for p, Initial residual = 0.0918985, Final residual = 0.000918723, No Iterations 13
time step continuity errors : sum local = 8.32292e-06, global = 1.23523e-17, cumulative = 4.25545e-16
Pressure gradient source: uncorrected Ubar = 1, pressure gradient = 0.0444191
smoothSolver:  Solving for epsilon, Initial residual = 0.0243303, Final residual = 0.0021989, No Iterations 10
smoothSolver:  Solving for k, Initial residual = 0.0527594, Final residual = 0.00499788, No Iterations 10
ExecutionTime = 0.31 s  ClockTime = 1 s

forceCoeffs forceCoeffs1 write:
    Coefficient	Total	Pressure	Viscous	Internal
    Cd:	7.19764e-06	7.19764e-06	0	0

    writing force and moment coefficient files.

runTimeControl runTimeControl1 output:
    runTimeControl: condition1 averages:
        CdMean: 3.66149e-06, delta: 3.53615e-06

    Conditions not met

Time = 26

smoothSolver:  Solving for Ux, Initial residual = 0.00289972, Final residual = 0.000239854, No Iterations 10
smoothSolver:  Solving for Uy, Initial residual = 0.0925877, Final residual = 0.00854541, No Iterations 8
Pressure gradient source: uncorrected Ubar = 0.999878, pressure gradient = 0.0630513
GAMG:  Solving for p, Initial residual = 0.0805328, Final residual = 0.000774949, No Iterations 19
time step continuity errors : sum local = 6.5487e-06, global = 4.07026e-18, cumulative = 4.29616e-16
Pressure gradient source: uncorrected Ubar = 0.999999, pressure gradient = 0.0445022
smoothSolver:  Solving for epsilon, Initial residual = 0.0226013, Final residual = 0.00204199, No Iterations 10
smoothSolver:  Solving for k, Initial residual = 0.0510712, Final residual = 0.00487638, No Iterations 10
ExecutionTime = 0.32 s  ClockTime = 1 s

forceCoeffs forceCoeffs1 write:
    Coefficient	Total	Pressure	Viscous	Internal
    Cd:	7.37245e-06	7.37245e-06	0	0

    writing force and moment coefficient files.

runTimeControl runTimeControl1 output:
    runTimeControl: condition1 averages:
        CdMean: 3.80422e-06, delta: 3.56823e-06

    Conditions not met

Time = 27

smoothSolver:  Solving for Ux, Initial residual = 0.0028757, Final residual = 0.000238531, No Iterations 10
smoothSolver:  Solving for Uy, Initial residual = 0.0932096, Final residual = 0.00845169, No Iterations 8
Pressure gradient source: uncorrected Ubar = 0.999882, pressure gradient = 0.0626418
GAMG:  Solving for p, Initial residual = 0.0869195, Final residual = 0.000859249, No Iterations 13
time step continuity errors : sum local = 7.10079e-06, global = 3.30985e-17, cumulative = 4.62714e-16
Pressure gradient source: uncorrected Ubar = 1, pressure gradient = 0.0445501
smoothSolver:  Solving for epsilon, Initial residual = 0.0225332, Final residual = 0.00204893, No Iterations 10
smoothSolver:  Solving for k, Initial residual = 0.0498645, Final residual = 0.00478477, No Iterations 10
ExecutionTime = 0.33 s  ClockTime = 1 s

forceCoeffs forceCoeffs1 write:
    Coefficient	Total	Pressure	Viscous	Internal
    Cd:	7.38763e-06	7.38763e-06	0	0

    writing force and moment coefficient files.

runTimeControl runTimeControl1 output:
    runTimeControl: condition1 averages:
        CdMean: 3.93693e-06, delta: 3.45069e-06

    Conditions not met

Time = 28

smoothSolver:  Solving for Ux, Initial residual = 0.00284728, Final residual = 0.000237001, No Iterations 10
smoothSolver:  Solving for Uy, Initial residual = 0.0857261, Final residual = 0.00819514, No Iterations 8
Pressure gradient source: uncorrected Ubar = 0.999885, pressure gradient = 0.0624229
GAMG:  Solving for p, Initial residual = 0.0733441, Final residual = 0.000700037, No Iterations 21
time step continuity errors : sum local = 5.66494e-06, global = -1.02435e-18, cumulative = 4.6169e-16
Pressure gradient source: uncorrected Ubar = 1, pressure gradient = 0.0445917
smoothSolver:  Solving for epsilon, Initial residual = 0.0233006, Final residual = 0.00208141, No Iterations 10
smoothSolver:  Solving for k, Initial residual = 0.0477272, Final residual = 0.00461689, No Iterations 10
ExecutionTime = 0.35 s  ClockTime = 1 s

forceCoeffs forceCoeffs1 write:
    Coefficient	Total	Pressure	Viscous	Internal
    Cd:	7.57791e-06	7.57791e-06	0	0

    writing force and moment coefficient files.

runTimeControl runTimeControl1 output:
    runTimeControl: condition1 averages:
        CdMean: 4.06697e-06, delta: 3.51094e-06

    Conditions not met

Time = 29

smoothSolver:  Solving for Ux, Initial residual = 0.00281932, Final residual = 0.000235317, No Iterations 10
smoothSolver:  Solving for Uy, Initial residual = 0.0864148, Final residual = 0.00804522, No Iterations 8
Pressure gradient source: uncorrected Ubar = 0.999888, pressure gradient = 0.0621592
GAMG:  Solving for p, Initial residual = 0.0692227, Final residual = 0.000654081, No Iterations 19
time step continuity errors : sum local = 5.26816e-06, global = 3.75812e-17, cumulative = 4.99271e-16
Pressure gradient source: uncorrected Ubar = 1, pressure gradient = 0.0446152
smoothSolver:  Solving for epsilon, Initial residual = 0.0206593, Final residual = 0.00195295, No Iterations 10
smoothSolver:  Solving for k, Initial residual = 0.0467601, Final residual = 0.00453041, No Iterations 10
ExecutionTime = 0.36 s  ClockTime = 1 s

forceCoeffs forceCoeffs1 write:
    Coefficient	Total	Pressure	Viscous	Internal
    Cd:	7.83675e-06	7.83675e-06	0	0

    writing force and moment coefficient files.

runTimeControl runTimeControl1 output:
    runTimeControl: condition1 averages:
        CdMean: 4.19696e-06, delta: 3.63979e-06

    Conditions not met

Time = 30

smoothSolver:  Solving for Ux, Initial residual = 0.00279925, Final residual = 0.000234274, No Iterations 10
smoothSolver:  Solving for Uy, Initial residual = 0.0795731, Final residual = 0.00785765, No Iterations 8
Pressure gradient source: uncorrected Ubar = 0.999882, pressure gradient = 0.063381
GAMG:  Solving for p, Initial residual = 0.0652914, Final residual = 0.000636538, No Iterations 14
time step continuity errors : sum local = 5.0739e-06, global = 3.0278e-17, cumulative = 5.29549e-16
Pressure gradient source: uncorrected Ubar = 0.999999, pressure gradient = 0.0448074
smoothSolver:  Solving for epsilon, Initial residual = 0.0197975, Final residual = 0.00188335, No Iterations 10
smoothSolver:  Solving for k, Initial residual = 0.0450948, Final residual = 0.00439703, No Iterations 10
ExecutionTime = 0.37 s  ClockTime = 1 s

forceCoeffs forceCoeffs1 write:
    Coefficient	Total	Pressure	Viscous	Internal
    Cd:	7.93474e-06	7.93474e-06	0	0

    writing force and moment coefficient files.

runTimeControl runTimeControl1 output:
    runTimeControl: condition1 averages:
        CdMean: 4.32155e-06, delta: 3.61318e-06

    Conditions not met

Time = 31

smoothSolver:  Solving for Ux, Initial residual = 0.00277709, Final residual = 0.000233322, No Iterations 10
smoothSolver:  Solving for Uy, Initial residual = 0.0753954, Final residual = 0.00746573, No Iterations 8
Pressure gradient source: uncorrected Ubar = 0.999886, pressure gradient = 0.0630193
GAMG:  Solving for p, Initial residual = 0.0601937, Final residual = 0.000576453, No Iterations 16
time step continuity errors : sum local = 4.5969e-06, global = 8.56959e-18, cumulative = 5.38119e-16
Pressure gradient source: uncorrected Ubar = 0.999999, pressure gradient = 0.0449528
smoothSolver:  Solving for epsilon, Initial residual = 0.0206846, Final residual = 0.00188792, No Iterations 10
smoothSolver:  Solving for k, Initial residual = 0.0435172, Final residual = 0.00425811, No Iterations 10
ExecutionTime = 0.39 s  ClockTime = 1 s

forceCoeffs forceCoeffs1 write:
    Coefficient	Total	Pressure	Viscous	Internal
    Cd:	8.03002e-06	8.03002e-06	0	0

    writing force and moment coefficient files.

runTimeControl runTimeControl1 output:
    runTimeControl: condition1 averages:
        CdMean: 4.44118e-06, delta: 3.58883e-06

    Conditions not met

Time = 32

smoothSolver:  Solving for Ux, Initial residual = 0.00275464, Final residual = 0.000232146, No Iterations 10
smoothSolver:  Solving for Uy, Initial residual = 0.0692372, Final residual = 0.00571885, No Iterations 9
Pressure gradient source: uncorrected Ubar = 0.999892, pressure gradient = 0.0623961
GAMG:  Solving for p, Initial residual = 0.0527137, Final residual = 0.000525888, No Iterations 15
time step continuity errors : sum local = 4.11065e-06, global = 2.44858e-17, cumulative = 5.62605e-16
Pressure gradient source: uncorrected Ubar = 1, pressure gradient = 0.0450216
smoothSolver:  Solving for epsilon, Initial residual = 0.0201583, Final residual = 0.00187202, No Iterations 10
smoothSolver:  Solving for k, Initial residual = 0.0419824, Final residual = 0.00412407, No Iterations 10
ExecutionTime = 0.4 s  ClockTime = 1 s

forceCoeffs forceCoeffs1 write:
    Coefficient	Total	Pressure	Viscous	Internal
    Cd:	8.25724e-06	8.25724e-06	0	0

    writing force and moment coefficient files.

runTimeControl runTimeControl1 output:
    runTimeControl: condition1 averages:
        CdMean: 4.56043e-06, delta: 3.69681e-06

    Conditions not met

Time = 33

smoothSolver:  Solving for Ux, Initial residual = 0.00273541, Final residual = 0.00023115, No Iterations 10
smoothSolver:  Solving for Uy, Initial residual = 0.0672406, Final residual = 0.00558285, No Iterations 9
Pressure gradient source: uncorrected Ubar = 0.999888, pressure gradient = 0.0632135
GAMG:  Solving for p, Initial residual = 0.0520108, Final residual = 0.000508029, No Iterations 17
time step continuity errors : sum local = 3.87128e-06, global = 1.06441e-17, cumulative = 5.73249e-16
Pressure gradient source: uncorrected Ubar = 0.999999, pressure gradient = 0.0451984
smoothSolver:  Solving for epsilon, Initial residual = 0.018584, Final residual = 0.00178469, No Iterations 10
smoothSolver:  Solving for k, Initial residual = 0.0408482, Final residual = 0.00403204, No Iterations 10
ExecutionTime = 0.41 s  ClockTime = 1 s

forceCoeffs forceCoeffs1 write:
    Coefficient	Total	Pressure	Viscous	Internal
    Cd:	8.44346e-06	8.44346e-06	0	0

    writing force and moment coefficient files.

runTimeControl runTimeControl1 output:
    runTimeControl: condition1 averages:
        CdMean: 4.6781e-06, delta: 3.76536e-06

    Conditions not met

Time = 34

smoothSolver:  Solving for Ux, Initial residual = 0.00271775, Final residual = 0.00023032, No Iterations 10
smoothSolver:  Solving for Uy, Initial residual = 0.0672339, Final residual = 0.00546518, No Iterations 9
Pressure gradient source: uncorrected Ubar = 0.999893, pressure gradient = 0.062853
GAMG:  Solving for p, Initial residual = 0.0477537, Final residual = 0.000461368, No Iterations 19
time step continuity errors : sum local = 3.51701e-06, global = 1.6001e-17, cumulative = 5.8925e-16
Pressure gradient source: uncorrected Ubar = 0.999999, pressure gradient = 0.0453284
smoothSolver:  Solving for epsilon, Initial residual = 0.0186908, Final residual = 0.00176295, No Iterations 10
smoothSolver:  Solving for k, Initial residual = 0.0394516, Final residual = 0.00390996, No Iterations 10
ExecutionTime = 0.43 s  ClockTime = 1 s

forceCoeffs forceCoeffs1 write:
    Coefficient	Total	Pressure	Viscous	Internal
    Cd:	8.53811e-06	8.53811e-06	0	0

    writing force and moment coefficient files.

runTimeControl runTimeControl1 output:
    runTimeControl: condition1 averages:
        CdMean: 4.79163e-06, delta: 3.74648e-06

    Conditions not met

Time = 35

smoothSolver:  Solving for Ux, Initial residual = 0.00270067, Final residual = 0.000229424, No Iterations 10
smoothSolver:  Solving for Uy, Initial residual = 0.0632794, Final residual = 0.00528443, No Iterations 9
Pressure gradient source: uncorrected Ubar = 0.999894, pressure gradient = 0.062858
GAMG:  Solving for p, Initial residual = 0.0435794, Final residual = 0.000412661, No Iterations 20
time step continuity errors : sum local = 3.12844e-06, global = -7.17378e-18, cumulative = 5.82076e-16
Pressure gradient source: uncorrected Ubar = 0.999999, pressure gradient = 0.0454629
smoothSolver:  Solving for epsilon, Initial residual = 0.018872, Final residual = 0.00175446, No Iterations 10
smoothSolver:  Solving for k, Initial residual = 0.0379673, Final residual = 0.0037816, No Iterations 10
ExecutionTime = 0.44 s  ClockTime = 1 s

forceCoeffs forceCoeffs1 write:
    Coefficient	Total	Pressure	Viscous	Internal
    Cd:	8.6969e-06	8.6969e-06	0	0

    writing force and moment coefficient files.

runTimeControl runTimeControl1 output:
    runTimeControl: condition1 averages:
        CdMean: 4.90321e-06, delta: 3.79369e-06

    Conditions not met

Time = 36

smoothSolver:  Solving for Ux, Initial residual = 0.00268439, Final residual = 0.000228495, No Iterations 10
smoothSolver:  Solving for Uy, Initial residual = 0.0625634, Final residual = 0.00511035, No Iterations 9
Pressure gradient source: uncorrected Ubar = 0.999896, pressure gradient = 0.0627665
GAMG:  Solving for p, Initial residual = 0.0485354, Final residual = 0.000471462, No Iterations 18
time step continuity errors : sum local = 3.3867e-06, global = -4.72858e-17, cumulative = 5.3479e-16
Pressure gradient source: uncorrected Ubar = 0.999999, pressure gradient = 0.0455877
smoothSolver:  Solving for epsilon, Initial residual = 0.0179186, Final residual = 0.00170679, No Iterations 10
smoothSolver:  Solving for k, Initial residual = 0.0366936, Final residual = 0.00366814, No Iterations 10
ExecutionTime = 0.45 s  ClockTime = 1 s

forceCoeffs forceCoeffs1 write:
    Coefficient	Total	Pressure	Viscous	Internal
    Cd:	8.90859e-06	8.90859e-06	0	0

    writing force and moment coefficient files.

runTimeControl runTimeControl1 output:
    runTimeControl: condition1 averages:
        CdMean: 5.01447e-06, delta: 3.89412e-06

    Conditions not met

Time = 37

smoothSolver:  Solving for Ux, Initial residual = 0.00266739, Final residual = 0.000227671, No Iterations 10
smoothSolver:  Solving for Uy, Initial residual = 0.0599721, Final residual = 0.00490435, No Iterations 9
Pressure gradient source: uncorrected Ubar = 0.999897, pressure gradient = 0.0628914
GAMG:  Solving for p, Initial residual = 0.0406037, Final residual = 0.000404609, No Iterations 21
time step continuity errors : sum local = 2.78359e-06, global = 1.22925e-17, cumulative = 5.47083e-16
Pressure gradient source: uncorrected Ubar = 0.999999, pressure gradient = 0.04573
smoothSolver:  Solving for epsilon, Initial residual = 0.0173652, Final residual = 0.00167029, No Iterations 10
smoothSolver:  Solving for k, Initial residual = 0.0353419, Final residual = 0.00284443, No Iterations 11
ExecutionTime = 0.46 s  ClockTime = 1 s

forceCoeffs forceCoeffs1 write:
    Coefficient	Total	Pressure	Viscous	Internal
    Cd:	9.05058e-06	9.05058e-06	0	0

    writing force and moment coefficient files.

runTimeControl runTimeControl1 output:
    runTimeControl: condition1 averages:
        CdMean: 5.12355e-06, delta: 3.92703e-06

    Conditions not met

Time = 38

smoothSolver:  Solving for Ux, Initial residual = 0.00265343, Final residual = 0.000226943, No Iterations 10
smoothSolver:  Solving for Uy, Initial residual = 0.0582021, Final residual = 0.0047619, No Iterations 9
Pressure gradient source: uncorrected Ubar = 0.9999, pressure gradient = 0.0627387
GAMG:  Solving for p, Initial residual = 0.0417355, Final residual = 0.000403717, No Iterations 18
time step continuity errors : sum local = 2.68269e-06, global = 1.53644e-17, cumulative = 5.62447e-16
Pressure gradient source: uncorrected Ubar = 0.999999, pressure gradient = 0.0458519
smoothSolver:  Solving for epsilon, Initial residual = 0.0175985, Final residual = 0.00166124, No Iterations 10
smoothSolver:  Solving for k, Initial residual = 0.0340289, Final residual = 0.00274387, No Iterations 11
ExecutionTime = 0.47 s  ClockTime = 1 s

forceCoeffs forceCoeffs1 write:
    Coefficient	Total	Pressure	Viscous	Internal
    Cd:	9.17035e-06	9.17035e-06	0	0

    writing force and moment coefficient files.

runTimeControl runTimeControl1 output:
    runTimeControl: condition1 averages:
        CdMean: 5.23005e-06, delta: 3.9403e-06

    Conditions not met

Time = 39

smoothSolver:  Solving for Ux, Initial residual = 0.00263794, Final residual = 0.000226163, No Iterations 10
smoothSolver:  Solving for Uy, Initial residual = 0.0563086, Final residual = 0.00471137, No Iterations 9
Pressure gradient source: uncorrected Ubar = 0.999902, pressure gradient = 0.0626044
GAMG:  Solving for p, Initial residual = 0.0376827, Final residual = 0.000373957, No Iterations 22
time step continuity errors : sum local = 2.39846e-06, global = -1.61309e-17, cumulative = 5.46316e-16
Pressure gradient source: uncorrected Ubar = 0.999999, pressure gradient = 0.045961
smoothSolver:  Solving for epsilon, Initial residual = 0.0173586, Final residual = 0.00164315, No Iterations 10
smoothSolver:  Solving for k, Initial residual = 0.032593, Final residual = 0.0026377, No Iterations 11
ExecutionTime = 0.49 s  ClockTime = 1 s

forceCoeffs forceCoeffs1 write:
    Coefficient	Total	Pressure	Viscous	Internal
    Cd:	9.35334e-06	9.35334e-06	0	0

    writing force and moment coefficient files.

runTimeControl runTimeControl1 output:
    runTimeControl: condition1 averages:
        CdMean: 5.33577e-06, delta: 4.01757e-06

    Conditions not met

Time = 40

smoothSolver:  Solving for Ux, Initial residual = 0.00262374, Final residual = 0.00022544, No Iterations 10
smoothSolver:  Solving for Uy, Initial residual = 0.0562992, Final residual = 0.00457582, No Iterations 9
Pressure gradient source: uncorrected Ubar = 0.999903, pressure gradient = 0.0627421
GAMG:  Solving for p, Initial residual = 0.0374985, Final residual = 0.00036674, No Iterations 22
time step continuity errors : sum local = 2.22259e-06, global = 5.35572e-18, cumulative = 5.51672e-16
Pressure gradient source: uncorrected Ubar = 0.999999, pressure gradient = 0.0460911
smoothSolver:  Solving for epsilon, Initial residual = 0.0165795, Final residual = 0.00159735, No Iterations 10
smoothSolver:  Solving for k, Initial residual = 0.031474, Final residual = 0.00255372, No Iterations 11
ExecutionTime = 0.51 s  ClockTime = 1 s

forceCoeffs forceCoeffs1 write:
    Coefficient	Total	Pressure	Viscous	Internal
    Cd:	9.53427e-06	9.53427e-06	0	0

    writing force and moment coefficient files.

runTimeControl runTimeControl1 output:
    runTimeControl: condition1 averages:
        CdMean: 5.44074e-06, delta: 4.09353e-06

    Conditions not met

Time = 41

smoothSolver:  Solving for Ux, Initial residual = 0.00261184, Final residual = 0.000224877, No Iterations 10
smoothSolver:  Solving for Uy, Initial residual = 0.0543586, Final residual = 0.00450743, No Iterations 9
Pressure gradient source: uncorrected Ubar = 0.999903, pressure gradient = 0.0629841
GAMG:  Solving for p, Initial residual = 0.0379737, Final residual = 0.000363821, No Iterations 22
time step continuity errors : sum local = 2.08654e-06, global = 8.02945e-18, cumulative = 5.59701e-16
Pressure gradient source: uncorrected Ubar = 0.999999, pressure gradient = 0.0462522
smoothSolver:  Solving for epsilon, Initial residual = 0.0164174, Final residual = 0.00157603, No Iterations 10
smoothSolver:  Solving for k, Initial residual = 0.0299217, Final residual = 0.002432, No Iterations 11
ExecutionTime = 0.52 s  ClockTime = 1 s

forceCoeffs forceCoeffs1 write:
    Coefficient	Total	Pressure	Viscous	Internal
    Cd:	9.66735e-06	9.66735e-06	0	0

    writing force and moment coefficient files.

runTimeControl runTimeControl1 output:
    runTimeControl: condition1 averages:
        CdMean: 5.54383e-06, delta: 4.12352e-06

    Conditions not met

Time = 42

smoothSolver:  Solving for Ux, Initial residual = 0.00259932, Final residual = 0.000224341, No Iterations 10
smoothSolver:  Solving for Uy, Initial residual = 0.0523814, Final residual = 0.00435686, No Iterations 9
Pressure gradient source: uncorrected Ubar = 0.999904, pressure gradient = 0.0629831
GAMG:  Solving for p, Initial residual = 0.0393276, Final residual = 0.000388383, No Iterations 18
time step continuity errors : sum local = 2.0757e-06, global = 5.24767e-18, cumulative = 5.64949e-16
Pressure gradient source: uncorrected Ubar = 0.999999, pressure gradient = 0.0464091
smoothSolver:  Solving for epsilon, Initial residual = 0.01634, Final residual = 0.00155411, No Iterations 10
smoothSolver:  Solving for k, Initial residual = 0.0285711, Final residual = 0.00232864, No Iterations 11
ExecutionTime = 0.53 s  ClockTime = 1 s

forceCoeffs forceCoeffs1 write:
    Coefficient	Total	Pressure	Viscous	Internal
    Cd:	9.8194e-06	9.8194e-06	0	0

    writing force and moment coefficient files.

runTimeControl runTimeControl1 output:
    runTimeControl: condition1 averages:
        CdMean: 5.64562e-06, delta: 4.17377e-06

    Conditions not met

Time = 43

smoothSolver:  Solving for Ux, Initial residual = 0.00258655, Final residual = 0.000223778, No Iterations 10
smoothSolver:  Solving for Uy, Initial residual = 0.0519264, Final residual = 0.00423243, No Iterations 9
Pressure gradient source: uncorrected Ubar = 0.999906, pressure gradient = 0.0629352
GAMG:  Solving for p, Initial residual = 0.0433577, Final residual = 0.000420008, No Iterations 17
time step continuity errors : sum local = 2.07779e-06, global = 4.32503e-17, cumulative = 6.08199e-16
Pressure gradient source: uncorrected Ubar = 0.999999, pressure gradient = 0.0465579
smoothSolver:  Solving for epsilon, Initial residual = 0.0159382, Final residual = 0.00153085, No Iterations 10
smoothSolver:  Solving for k, Initial residual = 0.0272444, Final residual = 0.00222091, No Iterations 11
ExecutionTime = 0.54 s  ClockTime = 1 s

forceCoeffs forceCoeffs1 write:
    Coefficient	Total	Pressure	Viscous	Internal
    Cd:	1.00054e-05	1.00054e-05	0	0

    writing force and moment coefficient files.

runTimeControl runTimeControl1 output:
    runTimeControl: condition1 averages:
        CdMean: 5.74701e-06, delta: 4.25835e-06

    Conditions not met

Time = 44

smoothSolver:  Solving for Ux, Initial residual = 0.00257558, Final residual = 0.000223274, No Iterations 10
smoothSolver:  Solving for Uy, Initial residual = 0.0495824, Final residual = 0.00412172, No Iterations 9
Pressure gradient source: uncorrected Ubar = 0.999908, pressure gradient = 0.062933
GAMG:  Solving for p, Initial residual = 0.0393983, Final residual = 0.000386123, No Iterations 22
time step continuity errors : sum local = 1.77367e-06, global = 1.02921e-17, cumulative = 6.18491e-16
Pressure gradient source: uncorrected Ubar = 0.999999, pressure gradient = 0.0467052
smoothSolver:  Solving for epsilon, Initial residual = 0.0155986, Final residual = 0.00151007, No Iterations 10
smoothSolver:  Solving for k, Initial residual = 0.0262182, Final residual = 0.00214015, No Iterations 11
ExecutionTime = 0.56 s  ClockTime = 1 s

forceCoeffs forceCoeffs1 write:
    Coefficient	Total	Pressure	Viscous	Internal
    Cd:	1.01669e-05	1.01669e-05	0	0

    writing force and moment coefficient files.

runTimeControl runTimeControl1 output:
    runTimeControl: condition1 averages:
        CdMean: 5.84747e-06, delta: 4.31946e-06

    Conditions not met

Time = 45

smoothSolver:  Solving for Ux, Initial residual = 0.00256385, Final residual = 0.000222778, No Iterations 10
smoothSolver:  Solving for Uy, Initial residual = 0.0504947, Final residual = 0.00413852, No Iterations 9
Pressure gradient source: uncorrected Ubar = 0.999909, pressure gradient = 0.0630387
GAMG:  Solving for p, Initial residual = 0.0395589, Final residual = 0.000369085, No Iterations 20
time step continuity errors : sum local = 1.58398e-06, global = 1.13328e-17, cumulative = 6.29824e-16
Pressure gradient source: uncorrected Ubar = 0.999999, pressure gradient = 0.0468637
smoothSolver:  Solving for epsilon, Initial residual = 0.0155191, Final residual = 0.00149339, No Iterations 10
smoothSolver:  Solving for k, Initial residual = 0.0250064, Final residual = 0.00204415, No Iterations 11
ExecutionTime = 0.57 s  ClockTime = 1 s

forceCoeffs forceCoeffs1 write:
    Coefficient	Total	Pressure	Viscous	Internal
    Cd:	1.03113e-05	1.03113e-05	0	0

    writing force and moment coefficient files.

runTimeControl runTimeControl1 output:
    runTimeControl: condition1 averages:
        CdMean: 5.94666e-06, delta: 4.36465e-06

    Conditions not met

Time = 46

smoothSolver:  Solving for Ux, Initial residual = 0.00255373, Final residual = 0.000222386, No Iterations 10
smoothSolver:  Solving for Uy, Initial residual = 0.0506252, Final residual = 0.00412437, No Iterations 9
Pressure gradient source: uncorrected Ubar = 0.999909, pressure gradient = 0.0632482
GAMG:  Solving for p, Initial residual = 0.0395004, Final residual = 0.000381375, No Iterations 20
time step continuity errors : sum local = 1.5246e-06, global = -1.70195e-17, cumulative = 6.12805e-16
Pressure gradient source: uncorrected Ubar = 0.999999, pressure gradient = 0.0470451
smoothSolver:  Solving for epsilon, Initial residual = 0.0154011, Final residual = 0.00148045, No Iterations 10
smoothSolver:  Solving for k, Initial residual = 0.0238214, Final residual = 0.00194882, No Iterations 11
ExecutionTime = 0.58 s  ClockTime = 1 s

forceCoeffs forceCoeffs1 write:
    Coefficient	Total	Pressure	Viscous	Internal
    Cd:	1.04829e-05	1.04829e-05	0	0

    writing force and moment coefficient files.

runTimeControl runTimeControl1 output:
    runTimeControl: condition1 averages:
        CdMean: 6.04528e-06, delta: 4.43764e-06

    Conditions not met

Time = 47

smoothSolver:  Solving for Ux, Initial residual = 0.00254247, Final residual = 0.000221925, No Iterations 10
smoothSolver:  Solving for Uy, Initial residual = 0.0502981, Final residual = 0.00416193, No Iterations 9
Pressure gradient source: uncorrected Ubar = 0.999912, pressure gradient = 0.0629771
GAMG:  Solving for p, Initial residual = 0.0409939, Final residual = 0.000387127, No Iterations 20
time step continuity errors : sum local = 1.42968e-06, global = -1.65556e-18, cumulative = 6.11149e-16
Pressure gradient source: uncorrected Ubar = 0.999999, pressure gradient = 0.0471858
smoothSolver:  Solving for epsilon, Initial residual = 0.0148718, Final residual = 0.00144159, No Iterations 10
smoothSolver:  Solving for k, Initial residual = 0.0226989, Final residual = 0.00185721, No Iterations 11
ExecutionTime = 0.59 s  ClockTime = 1 s

forceCoeffs forceCoeffs1 write:
    Coefficient	Total	Pressure	Viscous	Internal
    Cd:	1.06611e-05	1.06611e-05	0	0

    writing force and moment coefficient files.

runTimeControl runTimeControl1 output:
    runTimeControl: condition1 averages:
        CdMean: 6.14349e-06, delta: 4.51763e-06

    Conditions not met

Time = 48

smoothSolver:  Solving for Ux, Initial residual = 0.00253307, Final residual = 0.000221526, No Iterations 10
smoothSolver:  Solving for Uy, Initial residual = 0.0491088, Final residual = 0.0041733, No Iterations 9
Pressure gradient source: uncorrected Ubar = 0.999912, pressure gradient = 0.0632744
GAMG:  Solving for p, Initial residual = 0.0386896, Final residual = 0.000377592, No Iterations 22
time step continuity errors : sum local = 1.29069e-06, global = -2.58965e-18, cumulative = 6.08559e-16
Pressure gradient source: uncorrected Ubar = 0.999999, pressure gradient = 0.0473625
smoothSolver:  Solving for epsilon, Initial residual = 0.0149, Final residual = 0.00144539, No Iterations 10
smoothSolver:  Solving for k, Initial residual = 0.0215571, Final residual = 0.00176552, No Iterations 11
ExecutionTime = 0.61 s  ClockTime = 1 s

forceCoeffs forceCoeffs1 write:
    Coefficient	Total	Pressure	Viscous	Internal
    Cd:	1.08182e-05	1.08182e-05	0	0

    writing force and moment coefficient files.

runTimeControl runTimeControl1 output:
    runTimeControl: condition1 averages:
        CdMean: 6.24088e-06, delta: 4.57733e-06

    Conditions not met

Time = 49

smoothSolver:  Solving for Ux, Initial residual = 0.00252165, Final residual = 0.000221049, No Iterations 10
smoothSolver:  Solving for Uy, Initial residual = 0.0464802, Final residual = 0.00404948, No Iterations 9
Pressure gradient source: uncorrected Ubar = 0.999915, pressure gradient = 0.0629092
GAMG:  Solving for p, Initial residual = 0.040876, Final residual = 0.000385146, No Iterations 20
time step continuity errors : sum local = 1.21456e-06, global = 2.10235e-17, cumulative = 6.29583e-16
Pressure gradient source: uncorrected Ubar = 0.999999, pressure gradient = 0.0474873
smoothSolver:  Solving for epsilon, Initial residual = 0.0147678, Final residual = 0.00142808, No Iterations 10
smoothSolver:  Solving for k, Initial residual = 0.0202866, Final residual = 0.00166171, No Iterations 11
ExecutionTime = 0.62 s  ClockTime = 1 s

forceCoeffs forceCoeffs1 write:
    Coefficient	Total	Pressure	Viscous	Internal
    Cd:	1.09781e-05	1.09781e-05	0	0

    writing force and moment coefficient files.

runTimeControl runTimeControl1 output:
    runTimeControl: condition1 averages:
        CdMean: 6.33755e-06, delta: 4.64052e-06

    Conditions not met

Time = 50

smoothSolver:  Solving for Ux, Initial residual = 0.0025119, Final residual = 0.000220618, No Iterations 10
smoothSolver:  Solving for Uy, Initial residual = 0.045485, Final residual = 0.00395378, No Iterations 9
Pressure gradient source: uncorrected Ubar = 0.999915, pressure gradient = 0.0632319
GAMG:  Solving for p, Initial residual = 0.0408428, Final residual = 0.000393645, No Iterations 22
time step continuity errors : sum local = 1.14278e-06, global = 1.32501e-17, cumulative = 6.42833e-16
Pressure gradient source: uncorrected Ubar = 0.999999, pressure gradient = 0.0476528
smoothSolver:  Solving for epsilon, Initial residual = 0.0144794, Final residual = 0.00140468, No Iterations 10
smoothSolver:  Solving for k, Initial residual = 0.0192114, Final residual = 0.0015755, No Iterations 11
ExecutionTime = 0.63 s  ClockTime = 1 s

forceCoeffs forceCoeffs1 write:
    Coefficient	Total	Pressure	Viscous	Internal
    Cd:	1.11565e-05	1.11565e-05	0	0

    writing force and moment coefficient files.

runTimeControl runTimeControl1 output:
    runTimeControl: condition1 averages:
        CdMean: 6.43393e-06, delta: 4.72257e-06

    Conditions not met

Time = 51

smoothSolver:  Solving for Ux, Initial residual = 0.0025021, Final residual = 0.000220219, No Iterations 10
smoothSolver:  Solving for Uy, Initial residual = 0.0461663, Final residual = 0.0040171, No Iterations 9
Pressure gradient source: uncorrected Ubar = 0.999916, pressure gradient = 0.0632416
GAMG:  Solving for p, Initial residual = 0.0466652, Final residual = 0.000435473, No Iterations 20
time step continuity errors : sum local = 1.1513e-06, global = -7.73451e-18, cumulative = 6.35098e-16
Pressure gradient source: uncorrected Ubar = 0.999999, pressure gradient = 0.047814
smoothSolver:  Solving for epsilon, Initial residual = 0.0141458, Final residual = 0.00137812, No Iterations 10
smoothSolver:  Solving for k, Initial residual = 0.0181562, Final residual = 0.00148911, No Iterations 11
ExecutionTime = 0.65 s  ClockTime = 1 s

forceCoeffs forceCoeffs1 write:
    Coefficient	Total	Pressure	Viscous	Internal
    Cd:	1.13287e-05	1.13287e-05	0	0

    writing force and moment coefficient files.

runTimeControl runTimeControl1 output:
    runTimeControl: condition1 averages:
        CdMean: 6.52991e-06, delta: 4.79876e-06

    Conditions not met

Time = 52

smoothSolver:  Solving for Ux, Initial residual = 0.00249287, Final residual = 0.000219848, No Iterations 10
smoothSolver:  Solving for Uy, Initial residual = 0.0456471, Final residual = 0.0039991, No Iterations 9
Pressure gradient source: uncorrected Ubar = 0.999918, pressure gradient = 0.0631735
GAMG:  Solving for p, Initial residual = 0.0447063, Final residual = 0.00042565, No Iterations 24
time step continuity errors : sum local = 1.03439e-06, global = 4.4578e-18, cumulative = 6.39556e-16
Pressure gradient source: uncorrected Ubar = 0.999999, pressure gradient = 0.0479626
smoothSolver:  Solving for epsilon, Initial residual = 0.0141562, Final residual = 0.00137806, No Iterations 10
smoothSolver:  Solving for k, Initial residual = 0.0170963, Final residual = 0.00140139, No Iterations 11
ExecutionTime = 0.67 s  ClockTime = 1 s

forceCoeffs forceCoeffs1 write:
    Coefficient	Total	Pressure	Viscous	Internal
    Cd:	1.14906e-05	1.14906e-05	0	0

    writing force and moment coefficient files.

runTimeControl runTimeControl1 output:
    runTimeControl: condition1 averages:
        CdMean: 6.62531e-06, delta: 4.8653e-06

    Conditions not met

Time = 53

smoothSolver:  Solving for Ux, Initial residual = 0.00248359, Final residual = 0.000219484, No Iterations 10
smoothSolver:  Solving for Uy, Initial residual = 0.0460873, Final residual = 0.00395954, No Iterations 9
Pressure gradient source: uncorrected Ubar = 0.999919, pressure gradient = 0.0632591
GAMG:  Solving for p, Initial residual = 0.0485904, Final residual = 0.00046285, No Iterations 22
time step continuity errors : sum local = 1.03772e-06, global = 7.37829e-18, cumulative = 6.46935e-16
Pressure gradient source: uncorrected Ubar = 0.999999, pressure gradient = 0.0481186
smoothSolver:  Solving for epsilon, Initial residual = 0.013926, Final residual = 0.00135376, No Iterations 10
smoothSolver:  Solving for k, Initial residual = 0.0161804, Final residual = 0.00132653, No Iterations 11
ExecutionTime = 0.68 s  ClockTime = 1 s

forceCoeffs forceCoeffs1 write:
    Coefficient	Total	Pressure	Viscous	Internal
    Cd:	1.16632e-05	1.16632e-05	0	0

    writing force and moment coefficient files.

runTimeControl runTimeControl1 output:
    runTimeControl: condition1 averages:
        CdMean: 6.72036e-06, delta: 4.94281e-06

    Conditions not met

Time = 54

smoothSolver:  Solving for Ux, Initial residual = 0.00247415, Final residual = 0.000219085, No Iterations 10
smoothSolver:  Solving for Uy, Initial residual = 0.0441637, Final residual = 0.00389202, No Iterations 9
Pressure gradient source: uncorrected Ubar = 0.99992, pressure gradient = 0.0632014
GAMG:  Solving for p, Initial residual = 0.0503679, Final residual = 0.000476446, No Iterations 20
time step continuity errors : sum local = 9.9651e-07, global = 1.67241e-17, cumulative = 6.63659e-16
Pressure gradient source: uncorrected Ubar = 0.999999, pressure gradient = 0.0482631
smoothSolver:  Solving for epsilon, Initial residual = 0.01374, Final residual = 0.00134026, No Iterations 10
smoothSolver:  Solving for k, Initial residual = 0.0153133, Final residual = 0.00125508, No Iterations 11
ExecutionTime = 0.7 s  ClockTime = 1 s

forceCoeffs forceCoeffs1 write:
    Coefficient	Total	Pressure	Viscous	Internal
    Cd:	1.18426e-05	1.18426e-05	0	0

    writing force and moment coefficient files.

runTimeControl runTimeControl1 output:
    runTimeControl: condition1 averages:
        CdMean: 6.81522e-06, delta: 5.02738e-06

    Conditions not met

Time = 55

smoothSolver:  Solving for Ux, Initial residual = 0.0024646, Final residual = 0.000218679, No Iterations 10
smoothSolver:  Solving for Uy, Initial residual = 0.0434126, Final residual = 0.00380739, No Iterations 9
Pressure gradient source: uncorrected Ubar = 0.999922, pressure gradient = 0.0631063
GAMG:  Solving for p, Initial residual = 0.049369, Final residual = 0.000473132, No Iterations 22
time step continuity errors : sum local = 9.28706e-07, global = 7.321e-18, cumulative = 6.7098e-16
Pressure gradient source: uncorrected Ubar = 0.999999, pressure gradient = 0.0483934
smoothSolver:  Solving for epsilon, Initial residual = 0.0135933, Final residual = 0.0013283, No Iterations 10
smoothSolver:  Solving for k, Initial residual = 0.0145624, Final residual = 0.00119335, No Iterations 11
ExecutionTime = 0.71 s  ClockTime = 1 s

forceCoeffs forceCoeffs1 write:
    Coefficient	Total	Pressure	Viscous	Internal
    Cd:	1.20137e-05	1.20137e-05	0	0

    writing force and moment coefficient files.

runTimeControl runTimeControl1 output:
    runTimeControl: condition1 averages:
        CdMean: 6.90973e-06, delta: 5.10394e-06

    Conditions not met

Time = 56

smoothSolver:  Solving for Ux, Initial residual = 0.00245497, Final residual = 0.000218263, No Iterations 10
smoothSolver:  Solving for Uy, Initial residual = 0.0442912, Final residual = 0.00387703, No Iterations 9
Pressure gradient source: uncorrected Ubar = 0.999922, pressure gradient = 0.0632043
GAMG:  Solving for p, Initial residual = 0.0537013, Final residual = 0.000535572, No Iterations 20
time step continuity errors : sum local = 9.8357e-07, global = 2.19003e-17, cumulative = 6.9288e-16
Pressure gradient source: uncorrected Ubar = 0.999999, pressure gradient = 0.0485347
smoothSolver:  Solving for epsilon, Initial residual = 0.013496, Final residual = 0.00131765, No Iterations 10
smoothSolver:  Solving for k, Initial residual = 0.0138162, Final residual = 0.00113119, No Iterations 11
ExecutionTime = 0.72 s  ClockTime = 1 s

forceCoeffs forceCoeffs1 write:
    Coefficient	Total	Pressure	Viscous	Internal
    Cd:	1.21844e-05	1.21844e-05	0	0

    writing force and moment coefficient files.

runTimeControl runTimeControl1 output:
    runTimeControl: condition1 averages:
        CdMean: 7.00392e-06, delta: 5.18048e-06

    Conditions not met

Time = 57

smoothSolver:  Solving for Ux, Initial residual = 0.00244608, Final residual = 0.000217891, No Iterations 10
smoothSolver:  Solving for Uy, Initial residual = 0.0424812, Final residual = 0.00379091, No Iterations 9
Pressure gradient source: uncorrected Ubar = 0.999923, pressure gradient = 0.0633119
GAMG:  Solving for p, Initial residual = 0.0559763, Final residual = 0.000553028, No Iterations 20
time step continuity errors : sum local = 9.36581e-07, global = -9.20027e-18, cumulative = 6.8368e-16
Pressure gradient source: uncorrected Ubar = 0.999999, pressure gradient = 0.0486861
smoothSolver:  Solving for epsilon, Initial residual = 0.0133318, Final residual = 0.0013031, No Iterations 10
smoothSolver:  Solving for k, Initial residual = 0.0131697, Final residual = 0.00107856, No Iterations 11
ExecutionTime = 0.73 s  ClockTime = 1 s

forceCoeffs forceCoeffs1 write:
    Coefficient	Total	Pressure	Viscous	Internal
    Cd:	1.23644e-05	1.23644e-05	0	0

    writing force and moment coefficient files.

runTimeControl runTimeControl1 output:
    runTimeControl: condition1 averages:
        CdMean: 7.09797e-06, delta: 5.26646e-06

    Conditions not met

Time = 58

smoothSolver:  Solving for Ux, Initial residual = 0.00243753, Final residual = 0.000217532, No Iterations 10
smoothSolver:  Solving for Uy, Initial residual = 0.0401621, Final residual = 0.00368759, No Iterations 9
Pressure gradient source: uncorrected Ubar = 0.999925, pressure gradient = 0.0632271
GAMG:  Solving for p, Initial residual = 0.0532727, Final residual = 0.000527042, No Iterations 20
time step continuity errors : sum local = 8.22758e-07, global = 1.59499e-17, cumulative = 6.9963e-16
Pressure gradient source: uncorrected Ubar = 0.999999, pressure gradient = 0.0488228
smoothSolver:  Solving for epsilon, Initial residual = 0.0132464, Final residual = 0.00129783, No Iterations 10
smoothSolver:  Solving for k, Initial residual = 0.0125457, Final residual = 0.00102689, No Iterations 11
ExecutionTime = 0.75 s  ClockTime = 1 s

forceCoeffs forceCoeffs1 write:
    Coefficient	Total	Pressure	Viscous	Internal
    Cd:	1.25444e-05	1.25444e-05	0	0

    writing force and moment coefficient files.

runTimeControl runTimeControl1 output:
    runTimeControl: condition1 averages:
        CdMean: 7.19187e-06, delta: 5.35251e-06

    Conditions not met

Time = 59

smoothSolver:  Solving for Ux, Initial residual = 0.00242857, Final residual = 0.000217132, No Iterations 10
smoothSolver:  Solving for Uy, Initial residual = 0.0389073, Final residual = 0.003648, No Iterations 9
Pressure gradient source: uncorrected Ubar = 0.999926, pressure gradient = 0.0630976
GAMG:  Solving for p, Initial residual = 0.0515098, Final residual = 0.00048933, No Iterations 25
time step continuity errors : sum local = 7.1522e-07, global = 6.22455e-18, cumulative = 7.05854e-16
Pressure gradient source: uncorrected Ubar = 0.999999, pressure gradient = 0.0489413
smoothSolver:  Solving for epsilon, Initial residual = 0.0130227, Final residual = 0.00127595, No Iterations 10
smoothSolver:  Solving for k, Initial residual = 0.0119915, Final residual = 0.0009813, No Iterations 11
ExecutionTime = 0.76 s  ClockTime = 1 s

forceCoeffs forceCoeffs1 write:
    Coefficient	Total	Pressure	Viscous	Internal
    Cd:	1.27195e-05	1.27195e-05	0	0

    writing force and moment coefficient files.

runTimeControl runTimeControl1 output:
    runTimeControl: condition1 averages:
        CdMean: 7.28556e-06, delta: 5.43396e-06

    Conditions not met

Time = 60

smoothSolver:  Solving for Ux, Initial residual = 0.00241947, Final residual = 0.000216744, No Iterations 10
smoothSolver:  Solving for Uy, Initial residual = 0.0400797, Final residual = 0.00363306, No Iterations 9
Pressure gradient source: uncorrected Ubar = 0.999926, pressure gradient = 0.0632962
GAMG:  Solving for p, Initial residual = 0.0572631, Final residual = 0.000552742, No Iterations 20
time step continuity errors : sum local = 7.67326e-07, global = -9.09368e-18, cumulative = 6.9676e-16
Pressure gradient source: uncorrected Ubar = 0.999999, pressure gradient = 0.0490846
smoothSolver:  Solving for epsilon, Initial residual = 0.0128687, Final residual = 0.00126039, No Iterations 10
smoothSolver:  Solving for k, Initial residual = 0.0114393, Final residual = 0.000935675, No Iterations 11
ExecutionTime = 0.77 s  ClockTime = 1 s

forceCoeffs forceCoeffs1 write:
    Coefficient	Total	Pressure	Viscous	Internal
    Cd:	1.28991e-05	1.28991e-05	0	0

    writing force and moment coefficient files.

runTimeControl runTimeControl1 output:
    runTimeControl: condition1 averages:
        CdMean: 7.37912e-06, delta: 5.51996e-06

    Conditions not met

Time = 61

smoothSolver:  Solving for Ux, Initial residual = 0.00241105, Final residual = 0.000216393, No Iterations 10
smoothSolver:  Solving for Uy, Initial residual = 0.0404588, Final residual = 0.00358207, No Iterations 9
Pressure gradient source: uncorrected Ubar = 0.999928, pressure gradient = 0.0632252
GAMG:  Solving for p, Initial residual = 0.0569692, Final residual = 0.000566093, No Iterations 21
time step continuity errors : sum local = 7.3669e-07, global = 2.1391e-17, cumulative = 7.18151e-16
Pressure gradient source: uncorrected Ubar = 0.999999, pressure gradient = 0.049216
smoothSolver:  Solving for epsilon, Initial residual = 0.0127547, Final residual = 0.00125168, No Iterations 10
smoothSolver:  Solving for k, Initial residual = 0.0109672, Final residual = 0.000897499, No Iterations 11
ExecutionTime = 0.79 s  ClockTime = 1 s

forceCoeffs forceCoeffs1 write:
    Coefficient	Total	Pressure	Viscous	Internal
    Cd:	1.30836e-05	1.30836e-05	0	0

    writing force and moment coefficient files.

runTimeControl runTimeControl1 output:
    runTimeControl: condition1 averages:
        CdMean: 7.47264e-06, delta: 5.61101e-06

    Conditions not met

Time = 62

smoothSolver:  Solving for Ux, Initial residual = 0.00240238, Final residual = 0.000216045, No Iterations 10
smoothSolver:  Solving for Uy, Initial residual = 0.0375099, Final residual = 0.00348552, No Iterations 9
Pressure gradient source: uncorrected Ubar = 0.999928, pressure gradient = 0.0633226
GAMG:  Solving for p, Initial residual = 0.0542045, Final residual = 0.000519453, No Iterations 25
time step continuity errors : sum local = 6.18643e-07, global = -1.22657e-17, cumulative = 7.05886e-16
Pressure gradient source: uncorrected Ubar = 0.999999, pressure gradient = 0.0493575
smoothSolver:  Solving for epsilon, Initial residual = 0.0126347, Final residual = 0.00124193, No Iterations 10
smoothSolver:  Solving for k, Initial residual = 0.0104748, Final residual = 0.000855749, No Iterations 11
ExecutionTime = 0.8 s  ClockTime = 1 s

forceCoeffs forceCoeffs1 write:
    Coefficient	Total	Pressure	Viscous	Internal
    Cd:	1.32664e-05	1.32664e-05	0	0

    writing force and moment coefficient files.

runTimeControl runTimeControl1 output:
    runTimeControl: condition1 averages:
        CdMean: 7.56608e-06, delta: 5.70033e-06

    Conditions not met

Time = 63

smoothSolver:  Solving for Ux, Initial residual = 0.00239394, Final residual = 0.000215699, No Iterations 10
smoothSolver:  Solving for Uy, Initial residual = 0.0381638, Final residual = 0.00341831, No Iterations 9
Pressure gradient source: uncorrected Ubar = 0.99993, pressure gradient = 0.0632207
GAMG:  Solving for p, Initial residual = 0.0675229, Final residual = 0.000667212, No Iterations 12
time step continuity errors : sum local = 7.15134e-07, global = 3.79777e-18, cumulative = 7.09683e-16
Pressure gradient source: uncorrected Ubar = 0.999999, pressure gradient = 0.0494833
smoothSolver:  Solving for epsilon, Initial residual = 0.0125341, Final residual = 0.00123092, No Iterations 10
smoothSolver:  Solving for k, Initial residual = 0.0100547, Final residual = 0.000821805, No Iterations 11
ExecutionTime = 0.81 s  ClockTime = 1 s

forceCoeffs forceCoeffs1 write:
    Coefficient	Total	Pressure	Viscous	Internal
    Cd:	1.34486e-05	1.34486e-05	0	0

    writing force and moment coefficient files.

runTimeControl runTimeControl1 output:
    runTimeControl: condition1 averages:
        CdMean: 7.65946e-06, delta: 5.78915e-06

    Conditions not met

Time = 64

smoothSolver:  Solving for Ux, Initial residual = 0.00238557, Final residual = 0.00021533, No Iterations 10
smoothSolver:  Solving for Uy, Initial residual = 0.0373164, Final residual = 0.0033367, No Iterations 9
Pressure gradient source: uncorrected Ubar = 0.999931, pressure gradient = 0.0632568
GAMG:  Solving for p, Initial residual = 0.0693045, Final residual = 0.000691012, No Iterations 22
time step continuity errors : sum local = 6.7794e-07, global = 4.41581e-18, cumulative = 7.14099e-16
Pressure gradient source: uncorrected Ubar = 0.999999, pressure gradient = 0.0496121
smoothSolver:  Solving for epsilon, Initial residual = 0.0123046, Final residual = 0.00120798, No Iterations 10
smoothSolver:  Solving for k, Initial residual = 0.00963437, Final residual = 0.000786532, No Iterations 11
ExecutionTime = 0.82 s  ClockTime = 1 s

forceCoeffs forceCoeffs1 write:
    Coefficient	Total	Pressure	Viscous	Internal
    Cd:	1.36356e-05	1.36356e-05	0	0

    writing force and moment coefficient files.

runTimeControl runTimeControl1 output:
    runTimeControl: condition1 averages:
        CdMean: 7.75284e-06, delta: 5.88276e-06

    Conditions not met

Time = 65

smoothSolver:  Solving for Ux, Initial residual = 0.00237664, Final residual = 0.00021496, No Iterations 10
smoothSolver:  Solving for Uy, Initial residual = 0.0373284, Final residual = 0.00325308, No Iterations 9
Pressure gradient source: uncorrected Ubar = 0.999932, pressure gradient = 0.063184
GAMG:  Solving for p, Initial residual = 0.0773403, Final residual = 0.00075177, No Iterations 20
time step continuity errors : sum local = 6.51032e-07, global = 5.1461e-18, cumulative = 7.19245e-16
Pressure gradient source: uncorrected Ubar = 0.999999, pressure gradient = 0.0497306
smoothSolver:  Solving for epsilon, Initial residual = 0.0122525, Final residual = 0.00120506, No Iterations 10
smoothSolver:  Solving for k, Initial residual = 0.00925483, Final residual = 0.000755651, No Iterations 11
ExecutionTime = 0.84 s  ClockTime = 1 s

forceCoeffs forceCoeffs1 write:
    Coefficient	Total	Pressure	Viscous	Internal
    Cd:	1.38245e-05	1.38245e-05	0	0

    writing force and moment coefficient files.

runTimeControl runTimeControl1 output:
    runTimeControl: condition1 averages:
        CdMean: 7.84624e-06, delta: 5.97821e-06

    Conditions not met

Time = 66

smoothSolver:  Solving for Ux, Initial residual = 0.00236807, Final residual = 0.000214579, No Iterations 10
smoothSolver:  Solving for Uy, Initial residual = 0.0361066, Final residual = 0.0032002, No Iterations 9
Pressure gradient source: uncorrected Ubar = 0.999932, pressure gradient = 0.0632856
GAMG:  Solving for p, Initial residual = 0.0790033, Final residual = 0.000767855, No Iterations 19
time step continuity errors : sum local = 6.06063e-07, global = 1.14644e-17, cumulative = 7.3071e-16
Pressure gradient source: uncorrected Ubar = 0.999999, pressure gradient = 0.0498611
smoothSolver:  Solving for epsilon, Initial residual = 0.0121661, Final residual = 0.00119744, No Iterations 10
smoothSolver:  Solving for k, Initial residual = 0.00888811, Final residual = 0.000725116, No Iterations 11
ExecutionTime = 0.85 s  ClockTime = 1 s

forceCoeffs forceCoeffs1 write:
    Coefficient	Total	Pressure	Viscous	Internal
    Cd:	1.40124e-05	1.40124e-05	0	0

    writing force and moment coefficient files.

runTimeControl runTimeControl1 output:
    runTimeControl: condition1 averages:
        CdMean: 7.93967e-06, delta: 6.07273e-06

    Conditions not met

Time = 67

smoothSolver:  Solving for Ux, Initial residual = 0.00236001, Final residual = 0.000214221, No Iterations 10
smoothSolver:  Solving for Uy, Initial residual = 0.0362691, Final residual = 0.00312422, No Iterations 9
Pressure gradient source: uncorrected Ubar = 0.999934, pressure gradient = 0.063232
GAMG:  Solving for p, Initial residual = 0.0941798, Final residual = 0.000920133, No Iterations 13
[...]
Pressure gradient source: uncorrected Ubar = 1, pressure gradient = 0.000939265
GAMG:  Solving for p, Initial residual = 0.0462901, Final residual = 0.000449376, No Iterations 33
time step continuity errors : sum local = 2.77835e-09, global = -2.3033e-18, cumulative = 1.47467e-14
Pressure gradient source: uncorrected Ubar = 1, pressure gradient = 0.00095932
smoothSolver:  Solving for epsilon, Initial residual = 1.03299e-05, Final residual = 5.85834e-06, No Iterations 1
smoothSolver:  Solving for k, Initial residual = 4.27487e-05, Final residual = 8.6559e-06, No Iterations 2
ExecutionTime = 32.56 s  ClockTime = 35 s

forceCoeffs forceCoeffs1 write:
    Coefficient	Total	Pressure	Viscous	Internal
    Cd:	0.000197953	0.000197953	0	0

    writing force and moment coefficient files.

runTimeControl runTimeControl1 output:
    runTimeControl: condition1 averages:
        CdMean: 0.000200572, delta: 2.61811e-06

    Conditions not met

Time = 3458

smoothSolver:  Solving for Ux, Initial residual = 3.31857e-05, Final residual = 8.28878e-06, No Iterations 5
smoothSolver:  Solving for Uy, Initial residual = 0.109768, Final residual = 0.00973065, No Iterations 6
Pressure gradient source: uncorrected Ubar = 1, pressure gradient = 0.000939713
GAMG:  Solving for p, Initial residual = 0.0437272, Final residual = 0.000422937, No Iterations 27
time step continuity errors : sum local = 2.79993e-09, global = 4.19738e-18, cumulative = 1.47509e-14
Pressure gradient source: uncorrected Ubar = 1, pressure gradient = 0.0009594
smoothSolver:  Solving for epsilon, Initial residual = 8.28624e-06, Final residual = 8.28624e-06, No Iterations 0
smoothSolver:  Solving for k, Initial residual = 4.2212e-05, Final residual = 8.06407e-06, No Iterations 2
ExecutionTime = 32.57 s  ClockTime = 35 s

forceCoeffs forceCoeffs1 write:
    Coefficient	Total	Pressure	Viscous	Internal
    Cd:	0.000197951	0.000197951	0	0

    writing force and moment coefficient files.

runTimeControl runTimeControl1 output:
    runTimeControl: condition1 averages:
        CdMean: 0.000200566, delta: 2.61492e-06

    Conditions not met

Time = 3459

smoothSolver:  Solving for Ux, Initial residual = 3.31275e-05, Final residual = 8.27084e-06, No Iterations 5
smoothSolver:  Solving for Uy, Initial residual = 0.0987514, Final residual = 0.00986171, No Iterations 6
Pressure gradient source: uncorrected Ubar = 1, pressure gradient = 0.000939535
GAMG:  Solving for p, Initial residual = 0.0395789, Final residual = 0.000383536, No Iterations 25
time step continuity errors : sum local = 2.75593e-09, global = 7.6449e-18, cumulative = 1.47585e-14
Pressure gradient source: uncorrected Ubar = 1, pressure gradient = 0.000959447
smoothSolver:  Solving for epsilon, Initial residual = 9.98869e-06, Final residual = 9.98869e-06, No Iterations 0
smoothSolver:  Solving for k, Initial residual = 4.40234e-05, Final residual = 9.14006e-06, No Iterations 2
ExecutionTime = 32.58 s  ClockTime = 35 s

forceCoeffs forceCoeffs1 write:
    Coefficient	Total	Pressure	Viscous	Internal
    Cd:	0.000197947	0.000197947	0	0

    writing force and moment coefficient files.

runTimeControl runTimeControl1 output:
    runTimeControl: condition1 averages:
        CdMean: 0.000200561, delta: 2.61398e-06

    Conditions not met

Time = 3460

smoothSolver:  Solving for Ux, Initial residual = 3.30775e-05, Final residual = 8.25301e-06, No Iterations 5
smoothSolver:  Solving for Uy, Initial residual = 0.100549, Final residual = 0.00994547, No Iterations 6
Pressure gradient source: uncorrected Ubar = 1, pressure gradient = 0.000939601
GAMG:  Solving for p, Initial residual = 0.0344664, Final residual = 0.0003186, No Iterations 23
time step continuity errors : sum local = 2.52547e-09, global = -4.43644e-18, cumulative = 1.47541e-14
Pressure gradient source: uncorrected Ubar = 1, pressure gradient = 0.000959493
smoothSolver:  Solving for epsilon, Initial residual = 1.2027e-05, Final residual = 6.26758e-06, No Iterations 1
smoothSolver:  Solving for k, Initial residual = 4.43496e-05, Final residual = 9.45103e-06, No Iterations 2
ExecutionTime = 32.59 s  ClockTime = 35 s

forceCoeffs forceCoeffs1 write:
    Coefficient	Total	Pressure	Viscous	Internal
    Cd:	0.000197941	0.000197941	0	0

    writing force and moment coefficient files.

runTimeControl runTimeControl1 output:
    runTimeControl: condition1 averages:
        CdMean: 0.000200556, delta: 2.6145e-06

    Conditions not met

Time = 3461

smoothSolver:  Solving for Ux, Initial residual = 3.29795e-05, Final residual = 8.22847e-06, No Iterations 5
smoothSolver:  Solving for Uy, Initial residual = 0.111899, Final residual = 0.0098537, No Iterations 6
Pressure gradient source: uncorrected Ubar = 1, pressure gradient = 0.000939937
GAMG:  Solving for p, Initial residual = 0.0349466, Final residual = 0.000315981, No Iterations 19
time step continuity errors : sum local = 2.52316e-09, global = 1.62789e-17, cumulative = 1.47704e-14
Pressure gradient source: uncorrected Ubar = 1, pressure gradient = 0.000959565
smoothSolver:  Solving for epsilon, Initial residual = 8.49479e-06, Final residual = 8.49479e-06, No Iterations 0
smoothSolver:  Solving for k, Initial residual = 4.45887e-05, Final residual = 5.9522e-06, No Iterations 3
ExecutionTime = 32.61 s  ClockTime = 36 s

forceCoeffs forceCoeffs1 write:
    Coefficient	Total	Pressure	Viscous	Internal
    Cd:	0.00019794	0.00019794	0	0

    writing force and moment coefficient files.

runTimeControl runTimeControl1 output:
    runTimeControl: condition1 averages:
        CdMean: 0.000200551, delta: 2.61067e-06

    Conditions not met

Time = 3462

smoothSolver:  Solving for Ux, Initial residual = 3.28997e-05, Final residual = 8.21053e-06, No Iterations 5
smoothSolver:  Solving for Uy, Initial residual = 0.0965894, Final residual = 0.00961593, No Iterations 6
Pressure gradient source: uncorrected Ubar = 1, pressure gradient = 0.000939836
GAMG:  Solving for p, Initial residual = 0.0348832, Final residual = 0.000306786, No Iterations 21
time step continuity errors : sum local = 2.65114e-09, global = 1.74447e-17, cumulative = 1.47878e-14
Pressure gradient source: uncorrected Ubar = 1, pressure gradient = 0.000959614
smoothSolver:  Solving for epsilon, Initial residual = 1.02739e-05, Final residual = 5.82804e-06, No Iterations 1
smoothSolver:  Solving for k, Initial residual = 4.20054e-05, Final residual = 8.69925e-06, No Iterations 2
ExecutionTime = 32.63 s  ClockTime = 36 s

forceCoeffs forceCoeffs1 write:
    Coefficient	Total	Pressure	Viscous	Internal
    Cd:	0.000197936	0.000197936	0	0

    writing force and moment coefficient files.

runTimeControl runTimeControl1 output:
    runTimeControl: condition1 averages:
        CdMean: 0.000200545, delta: 2.609e-06

    Conditions not met

Time = 3463

smoothSolver:  Solving for Ux, Initial residual = 3.27802e-05, Final residual = 8.18434e-06, No Iterations 5
smoothSolver:  Solving for Uy, Initial residual = 0.107086, Final residual = 0.00931092, No Iterations 6
Pressure gradient source: uncorrected Ubar = 1, pressure gradient = 0.0009403
GAMG:  Solving for p, Initial residual = 0.0355666, Final residual = 0.000335405, No Iterations 19
time step continuity errors : sum local = 2.957e-09, global = 4.75007e-18, cumulative = 1.47926e-14
Pressure gradient source: uncorrected Ubar = 1, pressure gradient = 0.000959702
smoothSolver:  Solving for epsilon, Initial residual = 8.20582e-06, Final residual = 8.20582e-06, No Iterations 0
smoothSolver:  Solving for k, Initial residual = 4.3891e-05, Final residual = 9.72236e-06, No Iterations 2
ExecutionTime = 32.64 s  ClockTime = 36 s

forceCoeffs forceCoeffs1 write:
    Coefficient	Total	Pressure	Viscous	Internal
    Cd:	0.000197934	0.000197934	0	0

    writing force and moment coefficient files.

runTimeControl runTimeControl1 output:
    runTimeControl: condition1 averages:
        CdMean: 0.00020054, delta: 2.60589e-06

    Conditions not met

Time = 3464

smoothSolver:  Solving for Ux, Initial residual = 3.27136e-05, Final residual = 8.16472e-06, No Iterations 5
smoothSolver:  Solving for Uy, Initial residual = 0.0991634, Final residual = 0.00923972, No Iterations 6
Pressure gradient source: uncorrected Ubar = 1, pressure gradient = 0.000940055
GAMG:  Solving for p, Initial residual = 0.0321281, Final residual = 0.000261312, No Iterations 27
time step continuity errors : sum local = 2.44815e-09, global = -2.44878e-17, cumulative = 1.47681e-14
Pressure gradient source: uncorrected Ubar = 1, pressure gradient = 0.000959746
smoothSolver:  Solving for epsilon, Initial residual = 9.87945e-06, Final residual = 9.87945e-06, No Iterations 0
smoothSolver:  Solving for k, Initial residual = 4.53743e-05, Final residual = 6.37454e-06, No Iterations 3
ExecutionTime = 32.65 s  ClockTime = 36 s

forceCoeffs forceCoeffs1 write:
    Coefficient	Total	Pressure	Viscous	Internal
    Cd:	0.00019793	0.00019793	0	0

    writing force and moment coefficient files.

runTimeControl runTimeControl1 output:
    runTimeControl: condition1 averages:
        CdMean: 0.000200535, delta: 2.60502e-06

    Conditions not met

Time = 3465

smoothSolver:  Solving for Ux, Initial residual = 3.2658e-05, Final residual = 8.14459e-06, No Iterations 5
smoothSolver:  Solving for Uy, Initial residual = 0.0958345, Final residual = 0.00900005, No Iterations 6
Pressure gradient source: uncorrected Ubar = 1, pressure gradient = 0.000940221
GAMG:  Solving for p, Initial residual = 0.0296691, Final residual = 0.000257774, No Iterations 31
time step continuity errors : sum local = 2.54371e-09, global = -6.04378e-18, cumulative = 1.47621e-14
Pressure gradient source: uncorrected Ubar = 1, pressure gradient = 0.000959804
smoothSolver:  Solving for epsilon, Initial residual = 1.20476e-05, Final residual = 6.25247e-06, No Iterations 1
smoothSolver:  Solving for k, Initial residual = 4.33601e-05, Final residual = 9.7076e-06, No Iterations 2
ExecutionTime = 32.66 s  ClockTime = 36 s

forceCoeffs forceCoeffs1 write:
    Coefficient	Total	Pressure	Viscous	Internal
    Cd:	0.000197924	0.000197924	0	0

    writing force and moment coefficient files.

runTimeControl runTimeControl1 output:
    runTimeControl: condition1 averages:
        CdMean: 0.00020053, delta: 2.60584e-06

    Conditions not met

Time = 3466

smoothSolver:  Solving for Ux, Initial residual = 3.2561e-05, Final residual = 8.11899e-06, No Iterations 5
smoothSolver:  Solving for Uy, Initial residual = 0.10465, Final residual = 0.0087025, No Iterations 6
Pressure gradient source: uncorrected Ubar = 1, pressure gradient = 0.000940466
GAMG:  Solving for p, Initial residual = 0.0329986, Final residual = 0.000312304, No Iterations 20
time step continuity errors : sum local = 2.86057e-09, global = -1.23207e-17, cumulative = 1.47497e-14
Pressure gradient source: uncorrected Ubar = 1, pressure gradient = 0.000959874
smoothSolver:  Solving for epsilon, Initial residual = 8.52813e-06, Final residual = 8.52813e-06, No Iterations 0
smoothSolver:  Solving for k, Initial residual = 4.3482e-05, Final residual = 6.24813e-06, No Iterations 3
ExecutionTime = 32.67 s  ClockTime = 36 s

forceCoeffs forceCoeffs1 write:
    Coefficient	Total	Pressure	Viscous	Internal
    Cd:	0.000197922	0.000197922	0	0

    writing force and moment coefficient files.

runTimeControl runTimeControl1 output:
    runTimeControl: condition1 averages:
        CdMean: 0.000200525, delta: 2.60208e-06

    Conditions not met

Time = 3467

smoothSolver:  Solving for Ux, Initial residual = 3.24663e-05, Final residual = 8.09955e-06, No Iterations 5
smoothSolver:  Solving for Uy, Initial residual = 0.0933986, Final residual = 0.00844703, No Iterations 6
Pressure gradient source: uncorrected Ubar = 1, pressure gradient = 0.000940476
GAMG:  Solving for p, Initial residual = 0.0305053, Final residual = 0.000263621, No Iterations 27
time step continuity errors : sum local = 2.51826e-09, global = 3.29265e-19, cumulative = 1.47501e-14
Pressure gradient source: uncorrected Ubar = 1, pressure gradient = 0.000959934
smoothSolver:  Solving for epsilon, Initial residual = 1.0285e-05, Final residual = 5.81748e-06, No Iterations 1
smoothSolver:  Solving for k, Initial residual = 4.69697e-05, Final residual = 6.89267e-06, No Iterations 3
ExecutionTime = 32.68 s  ClockTime = 36 s

forceCoeffs forceCoeffs1 write:
    Coefficient	Total	Pressure	Viscous	Internal
    Cd:	0.000197919	0.000197919	0	0

    writing force and moment coefficient files.

runTimeControl runTimeControl1 output:
    runTimeControl: condition1 averages:
        CdMean: 0.000200519, delta: 2.60039e-06

    Conditions not met

Time = 3468

smoothSolver:  Solving for Ux, Initial residual = 3.23457e-05, Final residual = 8.07202e-06, No Iterations 5
smoothSolver:  Solving for Uy, Initial residual = 0.105989, Final residual = 0.0104798, No Iterations 5
Pressure gradient source: uncorrected Ubar = 1, pressure gradient = 0.000940875
GAMG:  Solving for p, Initial residual = 0.0349876, Final residual = 0.000336783, No Iterations 37
time step continuity errors : sum local = 3.21063e-09, global = 8.29009e-18, cumulative = 1.47584e-14
Pressure gradient source: uncorrected Ubar = 1, pressure gradient = 0.000960024
smoothSolver:  Solving for epsilon, Initial residual = 8.22513e-06, Final residual = 8.22513e-06, No Iterations 0
smoothSolver:  Solving for k, Initial residual = 4.36991e-05, Final residual = 6.55679e-06, No Iterations 3
ExecutionTime = 32.7 s  ClockTime = 36 s

forceCoeffs forceCoeffs1 write:
    Coefficient	Total	Pressure	Viscous	Internal
    Cd:	0.000197917	0.000197917	0	0

    writing force and moment coefficient files.

runTimeControl runTimeControl1 output:
    runTimeControl: condition1 averages:
        CdMean: 0.000200514, delta: 2.59738e-06

    Conditions not met

Time = 3469

smoothSolver:  Solving for Ux, Initial residual = 3.22743e-05, Final residual = 8.05014e-06, No Iterations 5
smoothSolver:  Solving for Uy, Initial residual = 0.0911065, Final residual = 0.00855607, No Iterations 6
Pressure gradient source: uncorrected Ubar = 1, pressure gradient = 0.00094072
GAMG:  Solving for p, Initial residual = 0.0316147, Final residual = 0.000296237, No Iterations 55
time step continuity errors : sum local = 2.79976e-09, global = -8.7565e-18, cumulative = 1.47496e-14
Pressure gradient source: uncorrected Ubar = 1, pressure gradient = 0.000960081
smoothSolver:  Solving for epsilon, Initial residual = 9.98672e-06, Final residual = 9.98672e-06, No Iterations 0
smoothSolver:  Solving for k, Initial residual = 4.51164e-05, Final residual = 7.11701e-06, No Iterations 3
ExecutionTime = 32.72 s  ClockTime = 36 s

forceCoeffs forceCoeffs1 write:
    Coefficient	Total	Pressure	Viscous	Internal
    Cd:	0.000197912	0.000197912	0	0

    writing force and moment coefficient files.

runTimeControl runTimeControl1 output:
    runTimeControl: condition1 averages:
        CdMean: 0.000200509, delta: 2.59675e-06

    Conditions not met

Time = 3470

smoothSolver:  Solving for Ux, Initial residual = 3.22097e-05, Final residual = 8.02785e-06, No Iterations 5
smoothSolver:  Solving for Uy, Initial residual = 0.0890559, Final residual = 0.0084831, No Iterations 6
Pressure gradient source: uncorrected Ubar = 1, pressure gradient = 0.000940834
GAMG:  Solving for p, Initial residual = 0.0310162, Final residual = 0.000302733, No Iterations 82
time step continuity errors : sum local = 2.70403e-09, global = 6.19019e-18, cumulative = 1.47558e-14
Pressure gradient source: uncorrected Ubar = 1, pressure gradient = 0.000960142
smoothSolver:  Solving for epsilon, Initial residual = 1.21578e-05, Final residual = 6.2791e-06, No Iterations 1
smoothSolver:  Solving for k, Initial residual = 4.55969e-05, Final residual = 7.22975e-06, No Iterations 3
ExecutionTime = 32.74 s  ClockTime = 36 s

forceCoeffs forceCoeffs1 write:
    Coefficient	Total	Pressure	Viscous	Internal
    Cd:	0.000197906	0.000197906	0	0

    writing force and moment coefficient files.

runTimeControl runTimeControl1 output:
    runTimeControl: condition1 averages:
        CdMean: 0.000200504, delta: 2.59773e-06

    Conditions not met

Time = 3471

smoothSolver:  Solving for Ux, Initial residual = 3.21123e-05, Final residual = 8.00146e-06, No Iterations 5
smoothSolver:  Solving for Uy, Initial residual = 0.0973854, Final residual = 0.0085022, No Iterations 6
Pressure gradient source: uncorrected Ubar = 1, pressure gradient = 0.000941074
GAMG:  Solving for p, Initial residual = 0.0349797, Final residual = 0.000333416, No Iterations 33
time step continuity errors : sum local = 2.67286e-09, global = -2.48343e-17, cumulative = 1.4731e-14
Pressure gradient source: uncorrected Ubar = 1, pressure gradient = 0.000960215
smoothSolver:  Solving for epsilon, Initial residual = 8.62934e-06, Final residual = 8.62934e-06, No Iterations 0
smoothSolver:  Solving for k, Initial residual = 4.75625e-05, Final residual = 7.82038e-06, No Iterations 3
ExecutionTime = 32.76 s  ClockTime = 36 s

forceCoeffs forceCoeffs1 write:
    Coefficient	Total	Pressure	Viscous	Internal
    Cd:	0.000197904	0.000197904	0	0

    writing force and moment coefficient files.

runTimeControl runTimeControl1 output:
    runTimeControl: condition1 averages:
        CdMean: 0.000200499, delta: 2.59408e-06

    Conditions not met

Time = 3472

smoothSolver:  Solving for Ux, Initial residual = 3.20087e-05, Final residual = 7.98007e-06, No Iterations 5
smoothSolver:  Solving for Uy, Initial residual = 0.0863024, Final residual = 0.00829206, No Iterations 6
Pressure gradient source: uncorrected Ubar = 1, pressure gradient = 0.000941122
GAMG:  Solving for p, Initial residual = 0.0353468, Final residual = 0.00033864, No Iterations 41
time step continuity errors : sum local = 2.77898e-09, global = 9.47206e-19, cumulative = 1.47319e-14
Pressure gradient source: uncorrected Ubar = 1, pressure gradient = 0.000960282
smoothSolver:  Solving for epsilon, Initial residual = 1.03797e-05, Final residual = 5.86807e-06, No Iterations 1
smoothSolver:  Solving for k, Initial residual = 4.50388e-05, Final residual = 7.40473e-06, No Iterations 3
ExecutionTime = 32.77 s  ClockTime = 36 s

forceCoeffs forceCoeffs1 write:
    Coefficient	Total	Pressure	Viscous	Internal
    Cd:	0.000197901	0.000197901	0	0

    writing force and moment coefficient files.

runTimeControl runTimeControl1 output:
    runTimeControl: condition1 averages:
        CdMean: 0.000200493, delta: 2.59247e-06

    Conditions not met

Time = 3473

smoothSolver:  Solving for Ux, Initial residual = 3.18853e-05, Final residual = 7.95191e-06, No Iterations 5
smoothSolver:  Solving for Uy, Initial residual = 0.0940217, Final residual = 0.00809924, No Iterations 6
Pressure gradient source: uncorrected Ubar = 1, pressure gradient = 0.000941495
GAMG:  Solving for p, Initial residual = 0.0357513, Final residual = 0.000352082, No Iterations 28
time step continuity errors : sum local = 2.82331e-09, global = -4.11609e-18, cumulative = 1.47278e-14
Pressure gradient source: uncorrected Ubar = 1, pressure gradient = 0.000960374
smoothSolver:  Solving for epsilon, Initial residual = 8.17328e-06, Final residual = 8.17328e-06, No Iterations 0
smoothSolver:  Solving for k, Initial residual = 4.70708e-05, Final residual = 8.17794e-06, No Iterations 3
ExecutionTime = 32.79 s  ClockTime = 36 s

forceCoeffs forceCoeffs1 write:
    Coefficient	Total	Pressure	Viscous	Internal
    Cd:	0.000197899	0.000197899	0	0

    writing force and moment coefficient files.

runTimeControl runTimeControl1 output:
    runTimeControl: condition1 averages:
        CdMean: 0.000200488, delta: 2.5894e-06

    Conditions not met

Time = 3474

smoothSolver:  Solving for Ux, Initial residual = 3.18022e-05, Final residual = 7.9282e-06, No Iterations 5
smoothSolver:  Solving for Uy, Initial residual = 0.0834639, Final residual = 0.00799658, No Iterations 6
Pressure gradient source: uncorrected Ubar = 1, pressure gradient = 0.0009414
